data_generated-by-softBV

_chemical_name_systematic         ''
_cell_length_a                    35.777
_cell_length_b                    35.777
_cell_length_c                    35.777
_cell_angle_alpha                 120.461
_cell_angle_beta                  120.326
_cell_angle_gamma                 89.320
_cell_volume                      32185.593
_cell_formula_units_Z             0
_symmetry_space_group_name_H-M    'P 1'
_symmetry_Int_Tables_number       1

loop_
  _symmetry_equiv_pos_site_id
  _symmetry_equiv_pos_as_xyz
    1    'x, y, z'

loop_
  _atom_type_symbol
  _atom_type_oxidation_number
  Li1+     1

loop_
  _atom_site_label
  _atom_site_type_symbol
  _atom_site_fract_x
  _atom_site_fract_y
  _atom_site_fract_z
  _atom_site_occupancy
  Li_i1  Li1+  0.000  0.100  0.100  0.001
  Li_i1  Li1+  0.100  0.100  0.000  0.001
  Li_i1  Li1+  0.000  0.100  0.300  0.001
  Li_i1  Li1+  0.100  0.100  0.200  0.001
  Li_i1  Li1+  0.000  0.100  0.500  0.001
  Li_i1  Li1+  0.100  0.100  0.400  0.001
  Li_i1  Li1+  0.000  0.100  0.700  0.001
  Li_i1  Li1+  0.100  0.100  0.600  0.001
  Li_i1  Li1+  0.000  0.100  0.900  0.001
  Li_i1  Li1+  0.100  0.100  0.800  0.001
  Li_i1  Li1+  0.000  0.300  0.100  0.001
  Li_i1  Li1+  0.100  0.300  0.000  0.001
  Li_i1  Li1+  0.000  0.300  0.300  0.001
  Li_i1  Li1+  0.100  0.300  0.200  0.001
  Li_i1  Li1+  0.000  0.300  0.500  0.001
  Li_i1  Li1+  0.100  0.300  0.400  0.001
  Li_i1  Li1+  0.000  0.300  0.700  0.001
  Li_i1  Li1+  0.100  0.300  0.600  0.001
  Li_i1  Li1+  0.000  0.300  0.900  0.001
  Li_i1  Li1+  0.100  0.300  0.800  0.001
  Li_i1  Li1+  0.000  0.500  0.100  0.001
  Li_i1  Li1+  0.100  0.500  0.000  0.001
  Li_i1  Li1+  0.000  0.500  0.300  0.001
  Li_i1  Li1+  0.100  0.500  0.200  0.001
  Li_i1  Li1+  0.000  0.500  0.500  0.001
  Li_i1  Li1+  0.100  0.500  0.400  0.001
  Li_i1  Li1+  0.000  0.500  0.700  0.001
  Li_i1  Li1+  0.100  0.500  0.600  0.001
  Li_i1  Li1+  0.000  0.500  0.900  0.001
  Li_i1  Li1+  0.100  0.500  0.800  0.001
  Li_i1  Li1+  0.000  0.700  0.100  0.001
  Li_i1  Li1+  0.100  0.700  0.000  0.001
  Li_i1  Li1+  0.000  0.700  0.300  0.001
  Li_i1  Li1+  0.100  0.700  0.200  0.001
  Li_i1  Li1+  0.000  0.700  0.500  0.001
  Li_i1  Li1+  0.100  0.700  0.400  0.001
  Li_i1  Li1+  0.000  0.700  0.700  0.001
  Li_i1  Li1+  0.100  0.700  0.600  0.001
  Li_i1  Li1+  0.000  0.700  0.900  0.001
  Li_i1  Li1+  0.100  0.700  0.800  0.001
  Li_i1  Li1+  0.000  0.900  0.100  0.001
  Li_i1  Li1+  0.100  0.900  0.000  0.001
  Li_i1  Li1+  0.000  0.900  0.300  0.001
  Li_i1  Li1+  0.100  0.900  0.200  0.001
  Li_i1  Li1+  0.000  0.900  0.500  0.001
  Li_i1  Li1+  0.100  0.900  0.400  0.001
  Li_i1  Li1+  0.000  0.900  0.700  0.001
  Li_i1  Li1+  0.100  0.900  0.600  0.001
  Li_i1  Li1+  0.000  0.900  0.900  0.001
  Li_i1  Li1+  0.100  0.900  0.800  0.001
  Li_i1  Li1+  0.200  0.100  0.100  0.001
  Li_i1  Li1+  0.300  0.100  0.000  0.001
  Li_i1  Li1+  0.200  0.100  0.300  0.001
  Li_i1  Li1+  0.300  0.100  0.200  0.001
  Li_i1  Li1+  0.200  0.100  0.500  0.001
  Li_i1  Li1+  0.300  0.100  0.400  0.001
  Li_i1  Li1+  0.200  0.100  0.700  0.001
  Li_i1  Li1+  0.300  0.100  0.600  0.001
  Li_i1  Li1+  0.200  0.100  0.900  0.001
  Li_i1  Li1+  0.300  0.100  0.800  0.001
  Li_i1  Li1+  0.200  0.300  0.100  0.001
  Li_i1  Li1+  0.300  0.300  0.000  0.001
  Li_i1  Li1+  0.200  0.300  0.300  0.001
  Li_i1  Li1+  0.300  0.300  0.200  0.001
  Li_i1  Li1+  0.200  0.300  0.500  0.001
  Li_i1  Li1+  0.300  0.300  0.400  0.001
  Li_i1  Li1+  0.200  0.300  0.700  0.001
  Li_i1  Li1+  0.300  0.300  0.600  0.001
  Li_i1  Li1+  0.200  0.300  0.900  0.001
  Li_i1  Li1+  0.300  0.300  0.800  0.001
  Li_i1  Li1+  0.200  0.500  0.100  0.001
  Li_i1  Li1+  0.300  0.500  0.000  0.001
  Li_i1  Li1+  0.200  0.500  0.300  0.001
  Li_i1  Li1+  0.300  0.500  0.200  0.001
  Li_i1  Li1+  0.200  0.500  0.500  0.001
  Li_i1  Li1+  0.300  0.500  0.400  0.001
  Li_i1  Li1+  0.200  0.500  0.700  0.001
  Li_i1  Li1+  0.300  0.500  0.600  0.001
  Li_i1  Li1+  0.200  0.500  0.900  0.001
  Li_i1  Li1+  0.300  0.500  0.800  0.001
  Li_i1  Li1+  0.200  0.700  0.100  0.001
  Li_i1  Li1+  0.300  0.700  0.000  0.001
  Li_i1  Li1+  0.200  0.700  0.300  0.001
  Li_i1  Li1+  0.300  0.700  0.200  0.001
  Li_i1  Li1+  0.200  0.700  0.500  0.001
  Li_i1  Li1+  0.300  0.700  0.400  0.001
  Li_i1  Li1+  0.200  0.700  0.700  0.001
  Li_i1  Li1+  0.300  0.700  0.600  0.001
  Li_i1  Li1+  0.200  0.700  0.900  0.001
  Li_i1  Li1+  0.300  0.700  0.800  0.001
  Li_i1  Li1+  0.200  0.900  0.100  0.001
  Li_i1  Li1+  0.300  0.900  0.000  0.001
  Li_i1  Li1+  0.200  0.900  0.300  0.001
  Li_i1  Li1+  0.300  0.900  0.200  0.001
  Li_i1  Li1+  0.200  0.900  0.500  0.001
  Li_i1  Li1+  0.300  0.900  0.400  0.001
  Li_i1  Li1+  0.200  0.900  0.700  0.001
  Li_i1  Li1+  0.300  0.900  0.600  0.001
  Li_i1  Li1+  0.200  0.900  0.900  0.001
  Li_i1  Li1+  0.300  0.900  0.800  0.001
  Li_i1  Li1+  0.400  0.100  0.100  0.001
  Li_i1  Li1+  0.500  0.100  0.000  0.001
  Li_i1  Li1+  0.400  0.100  0.300  0.001
  Li_i1  Li1+  0.500  0.100  0.200  0.001
  Li_i1  Li1+  0.400  0.100  0.500  0.001
  Li_i1  Li1+  0.500  0.100  0.400  0.001
  Li_i1  Li1+  0.400  0.100  0.700  0.001
  Li_i1  Li1+  0.500  0.100  0.600  0.001
  Li_i1  Li1+  0.400  0.100  0.900  0.001
  Li_i1  Li1+  0.500  0.100  0.800  0.001
  Li_i1  Li1+  0.400  0.300  0.100  0.001
  Li_i1  Li1+  0.500  0.300  0.000  0.001
  Li_i1  Li1+  0.400  0.300  0.300  0.001
  Li_i1  Li1+  0.500  0.300  0.200  0.001
  Li_i1  Li1+  0.400  0.300  0.500  0.001
  Li_i1  Li1+  0.500  0.300  0.400  0.001
  Li_i1  Li1+  0.400  0.300  0.700  0.001
  Li_i1  Li1+  0.500  0.300  0.600  0.001
  Li_i1  Li1+  0.400  0.300  0.900  0.001
  Li_i1  Li1+  0.500  0.300  0.800  0.001
  Li_i1  Li1+  0.400  0.500  0.100  0.001
  Li_i1  Li1+  0.500  0.500  0.000  0.001
  Li_i1  Li1+  0.400  0.500  0.300  0.001
  Li_i1  Li1+  0.500  0.500  0.200  0.001
  Li_i1  Li1+  0.400  0.500  0.500  0.001
  Li_i1  Li1+  0.500  0.500  0.400  0.001
  Li_i1  Li1+  0.400  0.500  0.700  0.001
  Li_i1  Li1+  0.500  0.500  0.600  0.001
  Li_i1  Li1+  0.400  0.500  0.900  0.001
  Li_i1  Li1+  0.500  0.500  0.800  0.001
  Li_i1  Li1+  0.400  0.700  0.100  0.001
  Li_i1  Li1+  0.500  0.700  0.000  0.001
  Li_i1  Li1+  0.400  0.700  0.300  0.001
  Li_i1  Li1+  0.500  0.700  0.200  0.001
  Li_i1  Li1+  0.400  0.700  0.500  0.001
  Li_i1  Li1+  0.500  0.700  0.400  0.001
  Li_i1  Li1+  0.400  0.700  0.700  0.001
  Li_i1  Li1+  0.500  0.700  0.600  0.001
  Li_i1  Li1+  0.400  0.700  0.900  0.001
  Li_i1  Li1+  0.500  0.700  0.800  0.001
  Li_i1  Li1+  0.400  0.900  0.100  0.001
  Li_i1  Li1+  0.500  0.900  0.000  0.001
  Li_i1  Li1+  0.400  0.900  0.300  0.001
  Li_i1  Li1+  0.500  0.900  0.200  0.001
  Li_i1  Li1+  0.400  0.900  0.500  0.001
  Li_i1  Li1+  0.500  0.900  0.400  0.001
  Li_i1  Li1+  0.400  0.900  0.700  0.001
  Li_i1  Li1+  0.500  0.900  0.600  0.001
  Li_i1  Li1+  0.400  0.900  0.900  0.001
  Li_i1  Li1+  0.500  0.900  0.800  0.001
  Li_i1  Li1+  0.600  0.100  0.100  0.001
  Li_i1  Li1+  0.700  0.100  0.000  0.001
  Li_i1  Li1+  0.600  0.100  0.300  0.001
  Li_i1  Li1+  0.700  0.100  0.200  0.001
  Li_i1  Li1+  0.600  0.100  0.500  0.001
  Li_i1  Li1+  0.700  0.100  0.400  0.001
  Li_i1  Li1+  0.600  0.100  0.700  0.001
  Li_i1  Li1+  0.700  0.100  0.600  0.001
  Li_i1  Li1+  0.600  0.100  0.900  0.001
  Li_i1  Li1+  0.700  0.100  0.800  0.001
  Li_i1  Li1+  0.600  0.300  0.100  0.001
  Li_i1  Li1+  0.700  0.300  0.000  0.001
  Li_i1  Li1+  0.600  0.300  0.300  0.001
  Li_i1  Li1+  0.700  0.300  0.200  0.001
  Li_i1  Li1+  0.600  0.300  0.500  0.001
  Li_i1  Li1+  0.700  0.300  0.400  0.001
  Li_i1  Li1+  0.600  0.300  0.700  0.001
  Li_i1  Li1+  0.700  0.300  0.600  0.001
  Li_i1  Li1+  0.600  0.300  0.900  0.001
  Li_i1  Li1+  0.700  0.300  0.800  0.001
  Li_i1  Li1+  0.600  0.500  0.100  0.001
  Li_i1  Li1+  0.700  0.500  0.000  0.001
  Li_i1  Li1+  0.600  0.500  0.300  0.001
  Li_i1  Li1+  0.700  0.500  0.200  0.001
  Li_i1  Li1+  0.600  0.500  0.500  0.001
  Li_i1  Li1+  0.700  0.500  0.400  0.001
  Li_i1  Li1+  0.600  0.500  0.700  0.001
  Li_i1  Li1+  0.700  0.500  0.600  0.001
  Li_i1  Li1+  0.600  0.500  0.900  0.001
  Li_i1  Li1+  0.700  0.500  0.800  0.001
  Li_i1  Li1+  0.600  0.700  0.100  0.001
  Li_i1  Li1+  0.700  0.700  0.000  0.001
  Li_i1  Li1+  0.600  0.700  0.300  0.001
  Li_i1  Li1+  0.700  0.700  0.200  0.001
  Li_i1  Li1+  0.600  0.700  0.500  0.001
  Li_i1  Li1+  0.700  0.700  0.400  0.001
  Li_i1  Li1+  0.600  0.700  0.700  0.001
  Li_i1  Li1+  0.700  0.700  0.600  0.001
  Li_i1  Li1+  0.600  0.700  0.900  0.001
  Li_i1  Li1+  0.700  0.700  0.800  0.001
  Li_i1  Li1+  0.600  0.900  0.100  0.001
  Li_i1  Li1+  0.700  0.900  0.000  0.001
  Li_i1  Li1+  0.600  0.900  0.300  0.001
  Li_i1  Li1+  0.700  0.900  0.200  0.001
  Li_i1  Li1+  0.600  0.900  0.500  0.001
  Li_i1  Li1+  0.700  0.900  0.400  0.001
  Li_i1  Li1+  0.600  0.900  0.700  0.001
  Li_i1  Li1+  0.700  0.900  0.600  0.001
  Li_i1  Li1+  0.600  0.900  0.900  0.001
  Li_i1  Li1+  0.700  0.900  0.800  0.001
  Li_i1  Li1+  0.800  0.100  0.100  0.001
  Li_i1  Li1+  0.900  0.100  0.000  0.001
  Li_i1  Li1+  0.800  0.100  0.300  0.001
  Li_i1  Li1+  0.900  0.100  0.200  0.001
  Li_i1  Li1+  0.800  0.100  0.500  0.001
  Li_i1  Li1+  0.900  0.100  0.400  0.001
  Li_i1  Li1+  0.800  0.100  0.700  0.001
  Li_i1  Li1+  0.900  0.100  0.600  0.001
  Li_i1  Li1+  0.800  0.100  0.900  0.001
  Li_i1  Li1+  0.900  0.100  0.800  0.001
  Li_i1  Li1+  0.800  0.300  0.100  0.001
  Li_i1  Li1+  0.900  0.300  0.000  0.001
  Li_i1  Li1+  0.800  0.300  0.300  0.001
  Li_i1  Li1+  0.900  0.300  0.200  0.001
  Li_i1  Li1+  0.800  0.300  0.500  0.001
  Li_i1  Li1+  0.900  0.300  0.400  0.001
  Li_i1  Li1+  0.800  0.300  0.700  0.001
  Li_i1  Li1+  0.900  0.300  0.600  0.001
  Li_i1  Li1+  0.800  0.300  0.900  0.001
  Li_i1  Li1+  0.900  0.300  0.800  0.001
  Li_i1  Li1+  0.800  0.500  0.100  0.001
  Li_i1  Li1+  0.900  0.500  0.000  0.001
  Li_i1  Li1+  0.800  0.500  0.300  0.001
  Li_i1  Li1+  0.900  0.500  0.200  0.001
  Li_i1  Li1+  0.800  0.500  0.500  0.001
  Li_i1  Li1+  0.900  0.500  0.400  0.001
  Li_i1  Li1+  0.800  0.500  0.700  0.001
  Li_i1  Li1+  0.900  0.500  0.600  0.001
  Li_i1  Li1+  0.800  0.500  0.900  0.001
  Li_i1  Li1+  0.900  0.500  0.800  0.001
  Li_i1  Li1+  0.800  0.700  0.100  0.001
  Li_i1  Li1+  0.900  0.700  0.000  0.001
  Li_i1  Li1+  0.800  0.700  0.300  0.001
  Li_i1  Li1+  0.900  0.700  0.200  0.001
  Li_i1  Li1+  0.800  0.700  0.500  0.001
  Li_i1  Li1+  0.900  0.700  0.400  0.001
  Li_i1  Li1+  0.800  0.700  0.700  0.001
  Li_i1  Li1+  0.900  0.700  0.600  0.001
  Li_i1  Li1+  0.800  0.700  0.900  0.001
  Li_i1  Li1+  0.900  0.700  0.800  0.001
  Li_i1  Li1+  0.800  0.900  0.100  0.001
  Li_i1  Li1+  0.900  0.900  0.000  0.001
  Li_i1  Li1+  0.800  0.900  0.300  0.001
  Li_i1  Li1+  0.900  0.900  0.200  0.001
  Li_i1  Li1+  0.800  0.900  0.500  0.001
  Li_i1  Li1+  0.900  0.900  0.400  0.001
  Li_i1  Li1+  0.800  0.900  0.700  0.001
  Li_i1  Li1+  0.900  0.900  0.600  0.001
  Li_i1  Li1+  0.800  0.900  0.900  0.001
  Li_i1  Li1+  0.900  0.900  0.800  0.001
  Li_i2  Li1+  0.200  0.200  0.200  0.001
  Li_i2  Li1+  0.500  0.400  0.500  0.001
  Li_i2  Li1+  0.100  0.600  0.100  0.001
  Li_i2  Li1+  0.400  0.400  0.600  0.001
  Li_i2  Li1+  0.300  0.200  0.300  0.001
  Li_i2  Li1+  0.500  0.400  0.700  0.001
  Li_i2  Li1+  0.000  0.000  0.000  0.001
  Li_i2  Li1+  0.400  0.400  0.800  0.001
  Li_i2  Li1+  0.200  0.200  0.400  0.001
  Li_i2  Li1+  0.500  0.400  0.900  0.001
  Li_i2  Li1+  0.000  0.600  0.200  0.001
  Li_i2  Li1+  0.400  0.600  0.000  0.001
  Li_i2  Li1+  0.300  0.200  0.500  0.001
  Li_i2  Li1+  0.500  0.600  0.100  0.001
  Li_i2  Li1+  0.000  0.200  0.600  0.001
  Li_i2  Li1+  0.400  0.600  0.200  0.001
  Li_i2  Li1+  0.200  0.200  0.600  0.001
  Li_i2  Li1+  0.500  0.600  0.300  0.001
  Li_i2  Li1+  0.100  0.600  0.300  0.001
  Li_i2  Li1+  0.400  0.600  0.400  0.001
  Li_i2  Li1+  0.300  0.200  0.700  0.001
  Li_i2  Li1+  0.500  0.600  0.500  0.001
  Li_i2  Li1+  0.000  -0.000  0.800  0.001
  Li_i2  Li1+  0.400  0.600  0.600  0.001
  Li_i2  Li1+  0.200  0.200  0.800  0.001
  Li_i2  Li1+  0.500  0.600  0.700  0.001
  Li_i2  Li1+  0.000  0.600  0.400  0.001
  Li_i2  Li1+  0.400  0.600  0.800  0.001
  Li_i2  Li1+  0.300  0.200  0.900  0.001
  Li_i2  Li1+  0.500  0.600  0.900  0.001
  Li_i2  Li1+  0.100  0.200  0.700  0.001
  Li_i2  Li1+  0.400  0.800  0.000  0.001
  Li_i2  Li1+  0.200  0.400  0.000  0.001
  Li_i2  Li1+  0.500  0.800  0.100  0.001
  Li_i2  Li1+  0.100  0.600  0.500  0.001
  Li_i2  Li1+  0.400  0.800  0.200  0.001
  Li_i2  Li1+  0.300  0.400  0.100  0.001
  Li_i2  Li1+  0.500  0.800  0.300  0.001
  Li_i2  Li1+  0.000  -0.000  0.400  0.001
  Li_i2  Li1+  0.400  0.800  0.400  0.001
  Li_i2  Li1+  0.200  0.400  0.200  0.001
  Li_i2  Li1+  0.500  0.800  0.500  0.001
  Li_i2  Li1+  0.000  0.600  0.600  0.001
  Li_i2  Li1+  0.400  0.800  0.600  0.001
  Li_i2  Li1+  0.300  0.400  0.300  0.001
  Li_i2  Li1+  0.500  0.800  0.700  0.001
  Li_i2  Li1+  0.000  0.200  0.800  0.001
  Li_i2  Li1+  0.400  0.800  0.800  0.001
  Li_i2  Li1+  0.200  0.400  0.400  0.001
  Li_i2  Li1+  0.500  0.800  0.900  0.001
  Li_i2  Li1+  0.100  0.600  0.700  0.001
  Li_i2  Li1+  0.600  0.000  0.000  0.001
  Li_i2  Li1+  0.300  0.400  0.500  0.001
  Li_i2  Li1+  0.700  -0.000  0.100  0.001
  Li_i2  Li1+  0.100  0.000  0.900  0.001
  Li_i2  Li1+  0.600  -0.000  0.200  0.001
  Li_i2  Li1+  0.200  0.400  0.600  0.001
  Li_i2  Li1+  0.700  -0.000  0.300  0.001
  Li_i2  Li1+  0.000  0.600  0.800  0.001
  Li_i2  Li1+  0.600  -0.000  0.400  0.001
  Li_i2  Li1+  0.300  0.400  0.700  0.001
  Li_i2  Li1+  0.700  0.000  0.500  0.001
  Li_i2  Li1+  0.100  0.200  0.900  0.001
  Li_i2  Li1+  0.600  -0.000  0.600  0.001
  Li_i2  Li1+  0.200  0.400  0.800  0.001
  Li_i2  Li1+  0.700  -0.000  0.700  0.001
  Li_i2  Li1+  0.100  0.600  0.900  0.001
  Li_i2  Li1+  0.600  -0.000  0.800  0.001
  Li_i2  Li1+  0.300  0.400  0.900  0.001
  Li_i2  Li1+  0.700  0.000  0.900  0.001
  Li_i2  Li1+  0.000  -0.000  0.200  0.001
  Li_i2  Li1+  0.600  0.200  0.000  0.001
  Li_i2  Li1+  0.200  0.600  0.000  0.001
  Li_i2  Li1+  0.700  0.200  0.100  0.001
  Li_i2  Li1+  0.000  0.800  0.000  0.001
  Li_i2  Li1+  0.600  0.200  0.200  0.001
  Li_i2  Li1+  0.300  0.600  0.100  0.001
  Li_i2  Li1+  0.700  0.200  0.300  0.001
  Li_i2  Li1+  0.000  0.400  0.000  0.001
  Li_i2  Li1+  0.600  0.200  0.400  0.001
  Li_i2  Li1+  0.200  0.600  0.200  0.001
  Li_i2  Li1+  0.700  0.200  0.500  0.001
  Li_i2  Li1+  0.100  0.800  0.100  0.001
  Li_i2  Li1+  0.600  0.200  0.600  0.001
  Li_i2  Li1+  0.300  0.600  0.300  0.001
  Li_i2  Li1+  0.700  0.200  0.700  0.001
  Li_i2  Li1+  0.000  0.200  0.000  0.001
  Li_i2  Li1+  0.600  0.200  0.800  0.001
  Li_i2  Li1+  0.200  0.600  0.400  0.001
  Li_i2  Li1+  0.700  0.200  0.900  0.001
  Li_i2  Li1+  0.000  0.800  0.200  0.001
  Li_i2  Li1+  0.600  0.400  0.000  0.001
  Li_i2  Li1+  0.300  0.600  0.500  0.001
  Li_i2  Li1+  0.700  0.400  0.100  0.001
  Li_i2  Li1+  0.100  0.400  0.100  0.001
  Li_i2  Li1+  0.600  0.400  0.200  0.001
  Li_i2  Li1+  0.200  0.600  0.600  0.001
  Li_i2  Li1+  0.700  0.400  0.300  0.001
  Li_i2  Li1+  0.100  0.800  0.300  0.001
  Li_i2  Li1+  0.600  0.400  0.400  0.001
  Li_i2  Li1+  0.300  0.600  0.700  0.001
  Li_i2  Li1+  0.700  0.400  0.500  0.001
  Li_i2  Li1+  0.100  0.000  0.500  0.001
  Li_i2  Li1+  0.600  0.400  0.600  0.001
  Li_i2  Li1+  0.200  0.600  0.800  0.001
  Li_i2  Li1+  0.700  0.400  0.700  0.001
  Li_i2  Li1+  0.000  0.800  0.400  0.001
  Li_i2  Li1+  0.600  0.400  0.800  0.001
  Li_i2  Li1+  0.300  0.600  0.900  0.001
  Li_i2  Li1+  0.700  0.400  0.900  0.001
  Li_i2  Li1+  0.000  0.400  0.200  0.001
  Li_i2  Li1+  0.600  0.600  0.000  0.001
  Li_i2  Li1+  0.200  0.800  0.000  0.001
  Li_i2  Li1+  0.700  0.600  0.100  0.001
  Li_i2  Li1+  0.100  0.800  0.500  0.001
  Li_i2  Li1+  0.600  0.600  0.200  0.001
  Li_i2  Li1+  0.300  0.800  0.100  0.001
  Li_i2  Li1+  0.700  0.600  0.300  0.001
  Li_i2  Li1+  0.100  0.200  0.100  0.001
  Li_i2  Li1+  0.600  0.600  0.400  0.001
  Li_i2  Li1+  0.200  0.800  0.200  0.001
  Li_i2  Li1+  0.700  0.600  0.500  0.001
  Li_i2  Li1+  0.000  0.800  0.600  0.001
  Li_i2  Li1+  0.600  0.600  0.600  0.001
  Li_i2  Li1+  0.300  0.800  0.300  0.001
  Li_i2  Li1+  0.700  0.600  0.700  0.001
  Li_i2  Li1+  0.100  0.400  0.300  0.001
  Li_i2  Li1+  0.600  0.600  0.800  0.001
  Li_i2  Li1+  0.200  0.800  0.400  0.001
  Li_i2  Li1+  0.700  0.600  0.900  0.001
  Li_i2  Li1+  0.100  0.800  0.700  0.001
  Li_i2  Li1+  0.600  0.800  0.000  0.001
  Li_i2  Li1+  0.300  0.800  0.500  0.001
  Li_i2  Li1+  0.700  0.800  0.100  0.001
  Li_i2  Li1+  0.100  -0.000  0.100  0.001
  Li_i2  Li1+  0.600  0.800  0.200  0.001
  Li_i2  Li1+  0.200  0.800  0.600  0.001
  Li_i2  Li1+  0.700  0.800  0.300  0.001
  Li_i2  Li1+  0.000  0.800  0.800  0.001
  Li_i2  Li1+  0.600  0.800  0.400  0.001
  Li_i2  Li1+  0.300  0.800  0.700  0.001
  Li_i2  Li1+  0.700  0.800  0.500  0.001
  Li_i2  Li1+  0.000  0.400  0.400  0.001
  Li_i2  Li1+  0.600  0.800  0.600  0.001
  Li_i2  Li1+  0.200  0.800  0.800  0.001
  Li_i2  Li1+  0.700  0.800  0.700  0.001
  Li_i2  Li1+  0.100  0.800  0.900  0.001
  Li_i2  Li1+  0.600  0.800  0.800  0.001
  Li_i2  Li1+  0.300  0.800  0.900  0.001
  Li_i2  Li1+  0.700  0.800  0.900  0.001
  Li_i2  Li1+  0.000  0.200  0.200  0.001
  Li_i2  Li1+  0.800  0.000  0.000  0.001
  Li_i2  Li1+  0.400  0.000  0.000  0.001
  Li_i2  Li1+  0.900  -0.000  0.100  0.001
  Li_i2  Li1+  0.200  0.000  0.000  0.001
  Li_i2  Li1+  0.800  -0.000  0.200  0.001
  Li_i2  Li1+  0.500  -0.000  0.100  0.001
  Li_i2  Li1+  0.900  -0.000  0.300  0.001
  Li_i2  Li1+  0.100  0.400  0.500  0.001
  Li_i2  Li1+  0.800  -0.000  0.400  0.001
  Li_i2  Li1+  0.400  -0.000  0.200  0.001
  Li_i2  Li1+  0.900  0.000  0.500  0.001
  Li_i2  Li1+  0.300  -0.000  0.100  0.001
  Li_i2  Li1+  0.800  -0.000  0.600  0.001
  Li_i2  Li1+  0.500  -0.000  0.300  0.001
  Li_i2  Li1+  0.900  -0.000  0.700  0.001
  Li_i2  Li1+  0.000  -0.000  0.600  0.001
  Li_i2  Li1+  0.800  -0.000  0.800  0.001
  Li_i2  Li1+  0.400  -0.000  0.400  0.001
  Li_i2  Li1+  0.900  0.000  0.900  0.001
  Li_i2  Li1+  0.200  -0.000  0.200  0.001
  Li_i2  Li1+  0.800  0.200  0.000  0.001
  Li_i2  Li1+  0.500  0.000  0.500  0.001
  Li_i2  Li1+  0.900  0.200  0.100  0.001
  Li_i2  Li1+  0.000  0.400  0.600  0.001
  Li_i2  Li1+  0.800  0.200  0.200  0.001
  Li_i2  Li1+  0.400  -0.000  0.600  0.001
  Li_i2  Li1+  0.900  0.200  0.300  0.001
  Li_i2  Li1+  0.300  -0.000  0.300  0.001
  Li_i2  Li1+  0.800  0.200  0.400  0.001
  Li_i2  Li1+  0.500  -0.000  0.700  0.001
  Li_i2  Li1+  0.900  0.200  0.500  0.001
  Li_i2  Li1+  0.100  0.200  0.300  0.001
  Li_i2  Li1+  0.800  0.200  0.600  0.001
  Li_i2  Li1+  0.400  -0.000  0.800  0.001
  Li_i2  Li1+  0.900  0.200  0.700  0.001
  Li_i2  Li1+  0.200  -0.000  0.400  0.001
  Li_i2  Li1+  0.800  0.200  0.800  0.001
  Li_i2  Li1+  0.500  0.000  0.900  0.001
  Li_i2  Li1+  0.900  0.200  0.900  0.001
  Li_i2  Li1+  0.100  0.400  0.700  0.001
  Li_i2  Li1+  0.800  0.400  0.000  0.001
  Li_i2  Li1+  0.400  0.200  0.000  0.001
  Li_i2  Li1+  0.900  0.400  0.100  0.001
  Li_i2  Li1+  0.300  0.000  0.500  0.001
  Li_i2  Li1+  0.800  0.400  0.200  0.001
  Li_i2  Li1+  0.500  0.200  0.100  0.001
  Li_i2  Li1+  0.900  0.400  0.300  0.001
  Li_i2  Li1+  0.100  -0.000  0.300  0.001
  Li_i2  Li1+  0.800  0.400  0.400  0.001
  Li_i2  Li1+  0.400  0.200  0.200  0.001
  Li_i2  Li1+  0.900  0.400  0.500  0.001
  Li_i2  Li1+  0.200  -0.000  0.600  0.001
  Li_i2  Li1+  0.800  0.400  0.600  0.001
  Li_i2  Li1+  0.500  0.200  0.300  0.001
  Li_i2  Li1+  0.900  0.400  0.700  0.001
  Li_i2  Li1+  0.000  0.400  0.800  0.001
  Li_i2  Li1+  0.800  0.400  0.800  0.001
  Li_i2  Li1+  0.400  0.200  0.400  0.001
  Li_i2  Li1+  0.900  0.400  0.900  0.001
  Li_i2  Li1+  0.300  -0.000  0.700  0.001
  Li_i2  Li1+  0.800  0.600  0.000  0.001
  Li_i2  Li1+  0.500  0.200  0.500  0.001
  Li_i2  Li1+  0.900  0.600  0.100  0.001
  Li_i2  Li1+  0.000  0.200  0.400  0.001
  Li_i2  Li1+  0.800  0.600  0.200  0.001
  Li_i2  Li1+  0.400  0.200  0.600  0.001
  Li_i2  Li1+  0.900  0.600  0.300  0.001
  Li_i2  Li1+  0.200  -0.000  0.800  0.001
  Li_i2  Li1+  0.800  0.600  0.400  0.001
  Li_i2  Li1+  0.500  0.200  0.700  0.001
  Li_i2  Li1+  0.900  0.600  0.500  0.001
  Li_i2  Li1+  0.100  0.400  0.900  0.001
  Li_i2  Li1+  0.800  0.600  0.600  0.001
  Li_i2  Li1+  0.400  0.200  0.800  0.001
  Li_i2  Li1+  0.900  0.600  0.700  0.001
  Li_i2  Li1+  0.300  0.000  0.900  0.001
  Li_i2  Li1+  0.800  0.600  0.800  0.001
  Li_i2  Li1+  0.500  0.200  0.900  0.001
  Li_i2  Li1+  0.900  0.600  0.900  0.001
  Li_i2  Li1+  0.100  -0.000  0.700  0.001
  Li_i2  Li1+  0.800  0.800  0.000  0.001
  Li_i2  Li1+  0.400  0.400  0.000  0.001
  Li_i2  Li1+  0.900  0.800  0.100  0.001
  Li_i2  Li1+  0.200  0.200  0.000  0.001
  Li_i2  Li1+  0.800  0.800  0.200  0.001
  Li_i2  Li1+  0.500  0.400  0.100  0.001
  Li_i2  Li1+  0.900  0.800  0.300  0.001
  Li_i2  Li1+  0.000  0.600  0.000  0.001
  Li_i2  Li1+  0.800  0.800  0.400  0.001
  Li_i2  Li1+  0.400  0.400  0.200  0.001
  Li_i2  Li1+  0.900  0.800  0.500  0.001
  Li_i2  Li1+  0.300  0.200  0.100  0.001
  Li_i2  Li1+  0.800  0.800  0.600  0.001
  Li_i2  Li1+  0.500  0.400  0.300  0.001
  Li_i2  Li1+  0.900  0.800  0.700  0.001
  Li_i2  Li1+  0.100  0.200  0.500  0.001
  Li_i2  Li1+  0.800  0.800  0.800  0.001
  Li_i2  Li1+  0.400  0.400  0.400  0.001
  Li_i2  Li1+  0.900  0.800  0.900  0.001
  Li_i3  Li1+  0.469  0.289  0.183  0.001
  Li_i3  Li1+  0.531  0.314  0.019  0.001
  Li_i3  Li1+  0.669  0.289  0.783  0.001
  Li_i3  Li1+  0.731  0.314  0.619  0.001
  Li_i3  Li1+  0.069  0.689  0.383  0.001
  Li_i3  Li1+  0.131  0.714  0.219  0.001
  Li_i3  Li1+  0.269  0.489  0.583  0.001
  Li_i3  Li1+  0.331  0.514  0.419  0.001
  Li_i3  Li1+  0.669  0.289  0.983  0.001
  Li_i3  Li1+  0.731  0.314  0.819  0.001
  Li_i3  Li1+  0.469  0.289  0.383  0.001
  Li_i3  Li1+  0.531  0.314  0.219  0.001
  Li_i3  Li1+  0.069  0.289  0.583  0.001
  Li_i3  Li1+  0.131  0.314  0.419  0.001
  Li_i3  Li1+  0.669  0.489  0.183  0.001
  Li_i3  Li1+  0.731  0.514  0.019  0.001
  Li_i3  Li1+  0.269  0.089  0.183  0.001
  Li_i3  Li1+  0.331  0.114  0.019  0.001
  Li_i3  Li1+  0.469  0.289  0.583  0.001
  Li_i3  Li1+  0.531  0.314  0.419  0.001
  Li_i3  Li1+  0.669  0.489  0.383  0.001
  Li_i3  Li1+  0.731  0.514  0.219  0.001
  Li_i3  Li1+  0.269  0.489  0.783  0.001
  Li_i3  Li1+  0.331  0.514  0.619  0.001
  Li_i3  Li1+  0.069  0.489  0.383  0.001
  Li_i3  Li1+  0.131  0.514  0.219  0.001
  Li_i3  Li1+  0.669  0.489  0.583  0.001
  Li_i3  Li1+  0.731  0.514  0.419  0.001
  Li_i3  Li1+  0.469  0.289  0.783  0.001
  Li_i3  Li1+  0.531  0.314  0.619  0.001
  Li_i3  Li1+  0.069  0.689  0.583  0.001
  Li_i3  Li1+  0.131  0.714  0.419  0.001
  Li_i3  Li1+  0.669  0.489  0.783  0.001
  Li_i3  Li1+  0.731  0.514  0.619  0.001
  Li_i3  Li1+  0.269  0.489  0.983  0.001
  Li_i3  Li1+  0.331  0.514  0.819  0.001
  Li_i3  Li1+  0.469  0.289  0.983  0.001
  Li_i3  Li1+  0.531  0.314  0.819  0.001
  Li_i3  Li1+  0.669  0.489  0.983  0.001
  Li_i3  Li1+  0.731  0.514  0.819  0.001
  Li_i3  Li1+  0.269  0.089  0.383  0.001
  Li_i3  Li1+  0.331  0.114  0.219  0.001
  Li_i3  Li1+  0.069  0.089  0.783  0.001
  Li_i3  Li1+  0.131  0.114  0.619  0.001
  Li_i3  Li1+  0.669  0.689  0.183  0.001
  Li_i3  Li1+  0.731  0.714  0.019  0.001
  Li_i3  Li1+  0.469  0.489  0.183  0.001
  Li_i3  Li1+  0.531  0.514  0.019  0.001
  Li_i3  Li1+  0.269  0.689  0.183  0.001
  Li_i3  Li1+  0.331  0.714  0.019  0.001
  Li_i3  Li1+  0.669  0.689  0.383  0.001
  Li_i3  Li1+  0.731  0.714  0.219  0.001
  Li_i3  Li1+  0.069  0.289  0.183  0.001
  Li_i3  Li1+  0.131  0.314  0.019  0.001
  Li_i3  Li1+  0.469  0.489  0.383  0.001
  Li_i3  Li1+  0.531  0.514  0.219  0.001
  Li_i3  Li1+  0.669  0.689  0.583  0.001
  Li_i3  Li1+  0.731  0.714  0.419  0.001
  Li_i3  Li1+  0.269  0.089  0.583  0.001
  Li_i3  Li1+  0.331  0.114  0.419  0.001
  Li_i3  Li1+  0.269  0.689  0.383  0.001
  Li_i3  Li1+  0.331  0.714  0.219  0.001
  Li_i3  Li1+  0.669  0.689  0.783  0.001
  Li_i3  Li1+  0.731  0.714  0.619  0.001
  Li_i3  Li1+  0.469  0.489  0.583  0.001
  Li_i3  Li1+  0.531  0.514  0.419  0.001
  Li_i3  Li1+  0.069  0.689  0.783  0.001
  Li_i3  Li1+  0.131  0.714  0.619  0.001
  Li_i3  Li1+  0.669  0.689  0.983  0.001
  Li_i3  Li1+  0.731  0.714  0.819  0.001
  Li_i3  Li1+  0.069  0.489  0.583  0.001
  Li_i3  Li1+  0.131  0.514  0.419  0.001
  Li_i3  Li1+  0.469  0.489  0.783  0.001
  Li_i3  Li1+  0.531  0.514  0.619  0.001
  Li_i3  Li1+  0.669  0.889  0.183  0.001
  Li_i3  Li1+  0.731  0.914  0.019  0.001
  Li_i3  Li1+  0.269  0.689  0.583  0.001
  Li_i3  Li1+  0.331  0.714  0.419  0.001
  Li_i3  Li1+  0.269  0.089  0.783  0.001
  Li_i3  Li1+  0.331  0.114  0.619  0.001
  Li_i3  Li1+  0.669  0.889  0.383  0.001
  Li_i3  Li1+  0.731  0.914  0.219  0.001
  Li_i3  Li1+  0.469  0.489  0.983  0.001
  Li_i3  Li1+  0.531  0.514  0.819  0.001
  Li_i3  Li1+  0.069  0.289  0.783  0.001
  Li_i3  Li1+  0.131  0.314  0.619  0.001
  Li_i3  Li1+  0.669  0.889  0.583  0.001
  Li_i3  Li1+  0.731  0.914  0.419  0.001
  Li_i3  Li1+  0.269  0.689  0.783  0.001
  Li_i3  Li1+  0.331  0.714  0.619  0.001
  Li_i3  Li1+  0.469  0.689  0.183  0.001
  Li_i3  Li1+  0.531  0.714  0.019  0.001
  Li_i3  Li1+  0.669  0.889  0.783  0.001
  Li_i3  Li1+  0.731  0.914  0.619  0.001
  Li_i3  Li1+  0.069  0.689  0.983  0.001
  Li_i3  Li1+  0.131  0.714  0.819  0.001
  Li_i3  Li1+  0.269  0.089  0.983  0.001
  Li_i3  Li1+  0.331  0.114  0.819  0.001
  Li_i3  Li1+  0.669  0.889  0.983  0.001
  Li_i3  Li1+  0.731  0.914  0.819  0.001
  Li_i3  Li1+  0.469  0.689  0.383  0.001
  Li_i3  Li1+  0.531  0.714  0.219  0.001
  Li_i3  Li1+  0.269  0.689  0.983  0.001
  Li_i3  Li1+  0.331  0.714  0.819  0.001
  Li_i3  Li1+  0.869  0.089  0.183  0.001
  Li_i3  Li1+  0.931  0.114  0.019  0.001
  Li_i3  Li1+  0.069  0.089  0.583  0.001
  Li_i3  Li1+  0.131  0.114  0.419  0.001
  Li_i3  Li1+  0.469  0.689  0.583  0.001
  Li_i3  Li1+  0.531  0.714  0.419  0.001
  Li_i3  Li1+  0.869  0.089  0.383  0.001
  Li_i3  Li1+  0.931  0.114  0.219  0.001
  Li_i3  Li1+  0.069  0.489  0.783  0.001
  Li_i3  Li1+  0.131  0.514  0.619  0.001
  Li_i3  Li1+  0.269  0.889  0.183  0.001
  Li_i3  Li1+  0.331  0.914  0.019  0.001
  Li_i3  Li1+  0.869  0.089  0.583  0.001
  Li_i3  Li1+  0.931  0.114  0.419  0.001
  Li_i3  Li1+  0.469  0.689  0.783  0.001
  Li_i3  Li1+  0.531  0.714  0.619  0.001
  Li_i3  Li1+  0.269  0.289  0.183  0.001
  Li_i3  Li1+  0.331  0.314  0.019  0.001
  Li_i3  Li1+  0.869  0.089  0.783  0.001
  Li_i3  Li1+  0.931  0.114  0.619  0.001
  Li_i3  Li1+  0.069  0.889  0.183  0.001
  Li_i3  Li1+  0.131  0.914  0.019  0.001
  Li_i3  Li1+  0.469  0.689  0.983  0.001
  Li_i3  Li1+  0.531  0.714  0.819  0.001
  Li_i3  Li1+  0.869  0.089  0.983  0.001
  Li_i3  Li1+  0.931  0.114  0.819  0.001
  Li_i3  Li1+  0.269  0.889  0.383  0.001
  Li_i3  Li1+  0.331  0.914  0.219  0.001
  Li_i3  Li1+  0.069  0.089  0.183  0.001
  Li_i3  Li1+  0.131  0.114  0.019  0.001
  Li_i3  Li1+  0.869  0.289  0.183  0.001
  Li_i3  Li1+  0.931  0.314  0.019  0.001
  Li_i3  Li1+  0.469  0.889  0.183  0.001
  Li_i3  Li1+  0.531  0.914  0.019  0.001
  Li_i3  Li1+  0.269  0.289  0.383  0.001
  Li_i3  Li1+  0.331  0.314  0.219  0.001
  Li_i3  Li1+  0.869  0.289  0.383  0.001
  Li_i3  Li1+  0.931  0.314  0.219  0.001
  Li_i3  Li1+  0.269  0.889  0.583  0.001
  Li_i3  Li1+  0.331  0.914  0.419  0.001
  Li_i3  Li1+  0.469  0.889  0.383  0.001
  Li_i3  Li1+  0.531  0.914  0.219  0.001
  Li_i3  Li1+  0.869  0.289  0.583  0.001
  Li_i3  Li1+  0.931  0.314  0.419  0.001
  Li_i3  Li1+  0.069  0.289  0.983  0.001
  Li_i3  Li1+  0.131  0.314  0.819  0.001
  Li_i3  Li1+  0.069  0.889  0.383  0.001
  Li_i3  Li1+  0.131  0.914  0.219  0.001
  Li_i3  Li1+  0.869  0.289  0.783  0.001
  Li_i3  Li1+  0.931  0.314  0.619  0.001
  Li_i3  Li1+  0.469  0.889  0.583  0.001
  Li_i3  Li1+  0.531  0.914  0.419  0.001
  Li_i3  Li1+  0.269  0.889  0.783  0.001
  Li_i3  Li1+  0.331  0.914  0.619  0.001
  Li_i3  Li1+  0.869  0.289  0.983  0.001
  Li_i3  Li1+  0.931  0.314  0.819  0.001
  Li_i3  Li1+  0.269  0.289  0.583  0.001
  Li_i3  Li1+  0.331  0.314  0.419  0.001
  Li_i3  Li1+  0.469  0.889  0.783  0.001
  Li_i3  Li1+  0.531  0.914  0.619  0.001
  Li_i3  Li1+  0.869  0.489  0.183  0.001
  Li_i3  Li1+  0.931  0.514  0.019  0.001
  Li_i3  Li1+  0.069  0.489  0.983  0.001
  Li_i3  Li1+  0.131  0.514  0.819  0.001
  Li_i3  Li1+  0.269  0.889  0.983  0.001
  Li_i3  Li1+  0.331  0.914  0.819  0.001
  Li_i3  Li1+  0.869  0.489  0.383  0.001
  Li_i3  Li1+  0.931  0.514  0.219  0.001
  Li_i3  Li1+  0.469  0.889  0.983  0.001
  Li_i3  Li1+  0.531  0.914  0.819  0.001
  Li_i3  Li1+  0.069  0.289  0.383  0.001
  Li_i3  Li1+  0.131  0.314  0.219  0.001
  Li_i3  Li1+  0.869  0.489  0.583  0.001
  Li_i3  Li1+  0.931  0.514  0.419  0.001
  Li_i3  Li1+  0.269  0.289  0.783  0.001
  Li_i3  Li1+  0.331  0.314  0.619  0.001
  Li_i3  Li1+  0.669  0.089  0.183  0.001
  Li_i3  Li1+  0.731  0.114  0.019  0.001
  Li_i3  Li1+  0.869  0.489  0.783  0.001
  Li_i3  Li1+  0.931  0.514  0.619  0.001
  Li_i3  Li1+  0.469  0.089  0.183  0.001
  Li_i3  Li1+  0.531  0.114  0.019  0.001
  Li_i3  Li1+  0.069  0.889  0.583  0.001
  Li_i3  Li1+  0.131  0.914  0.419  0.001
  Li_i3  Li1+  0.869  0.489  0.983  0.001
  Li_i3  Li1+  0.931  0.514  0.819  0.001
  Li_i3  Li1+  0.669  0.089  0.383  0.001
  Li_i3  Li1+  0.731  0.114  0.219  0.001
  Li_i3  Li1+  0.069  0.089  0.983  0.001
  Li_i3  Li1+  0.131  0.114  0.819  0.001
  Li_i3  Li1+  0.869  0.689  0.183  0.001
  Li_i3  Li1+  0.931  0.714  0.019  0.001
  Li_i3  Li1+  0.469  0.089  0.383  0.001
  Li_i3  Li1+  0.531  0.114  0.219  0.001
  Li_i3  Li1+  0.669  0.089  0.583  0.001
  Li_i3  Li1+  0.731  0.114  0.419  0.001
  Li_i3  Li1+  0.869  0.689  0.383  0.001
  Li_i3  Li1+  0.931  0.714  0.219  0.001
  Li_i3  Li1+  0.269  0.289  0.983  0.001
  Li_i3  Li1+  0.331  0.314  0.819  0.001
  Li_i3  Li1+  0.069  0.689  0.183  0.001
  Li_i3  Li1+  0.131  0.714  0.019  0.001
  Li_i3  Li1+  0.869  0.689  0.583  0.001
  Li_i3  Li1+  0.931  0.714  0.419  0.001
  Li_i3  Li1+  0.669  0.089  0.783  0.001
  Li_i3  Li1+  0.731  0.114  0.619  0.001
  Li_i3  Li1+  0.469  0.089  0.583  0.001
  Li_i3  Li1+  0.531  0.114  0.419  0.001
  Li_i3  Li1+  0.869  0.689  0.783  0.001
  Li_i3  Li1+  0.931  0.714  0.619  0.001
  Li_i3  Li1+  0.069  0.889  0.783  0.001
  Li_i3  Li1+  0.131  0.914  0.619  0.001
  Li_i3  Li1+  0.669  0.089  0.983  0.001
  Li_i3  Li1+  0.731  0.114  0.819  0.001
  Li_i3  Li1+  0.869  0.689  0.983  0.001
  Li_i3  Li1+  0.931  0.714  0.819  0.001
  Li_i3  Li1+  0.269  0.489  0.183  0.001
  Li_i3  Li1+  0.331  0.514  0.019  0.001
  Li_i3  Li1+  0.469  0.089  0.783  0.001
  Li_i3  Li1+  0.531  0.114  0.619  0.001
  Li_i3  Li1+  0.869  0.889  0.183  0.001
  Li_i3  Li1+  0.931  0.914  0.019  0.001
  Li_i3  Li1+  0.669  0.289  0.183  0.001
  Li_i3  Li1+  0.731  0.314  0.019  0.001
  Li_i3  Li1+  0.069  0.489  0.183  0.001
  Li_i3  Li1+  0.131  0.514  0.019  0.001
  Li_i3  Li1+  0.869  0.889  0.383  0.001
  Li_i3  Li1+  0.931  0.914  0.219  0.001
  Li_i3  Li1+  0.069  0.089  0.383  0.001
  Li_i3  Li1+  0.131  0.114  0.219  0.001
  Li_i3  Li1+  0.669  0.289  0.383  0.001
  Li_i3  Li1+  0.731  0.314  0.219  0.001
  Li_i3  Li1+  0.869  0.889  0.583  0.001
  Li_i3  Li1+  0.931  0.914  0.419  0.001
  Li_i3  Li1+  0.469  0.089  0.983  0.001
  Li_i3  Li1+  0.531  0.114  0.819  0.001
  Li_i3  Li1+  0.269  0.489  0.383  0.001
  Li_i3  Li1+  0.331  0.514  0.219  0.001
  Li_i3  Li1+  0.869  0.889  0.783  0.001
  Li_i3  Li1+  0.931  0.914  0.619  0.001
  Li_i3  Li1+  0.669  0.289  0.583  0.001
  Li_i3  Li1+  0.731  0.314  0.419  0.001
  Li_i3  Li1+  0.069  0.889  0.983  0.001
  Li_i3  Li1+  0.131  0.914  0.819  0.001
  Li_i3  Li1+  0.869  0.889  0.983  0.001
  Li_i3  Li1+  0.931  0.914  0.819  0.001
  Li_i4  Li1+  0.697  0.714  0.697  0.001
  Li_i4  Li1+  0.283  0.400  0.997  0.001
  Li_i4  Li1+  0.297  0.514  0.897  0.001
  Li_i4  Li1+  0.483  0.800  0.197  0.001
  Li_i4  Li1+  0.497  0.914  0.097  0.001
  Li_i4  Li1+  0.083  0.400  0.597  0.001
  Li_i4  Li1+  0.097  0.514  0.497  0.001
  Li_i4  Li1+  0.683  0.600  0.997  0.001
  Li_i4  Li1+  0.697  0.714  0.897  0.001
  Li_i4  Li1+  0.083  0.800  0.597  0.001
  Li_i4  Li1+  0.097  0.914  0.497  0.001
  Li_i4  Li1+  0.483  -0.000  0.797  0.001
  Li_i4  Li1+  0.497  0.114  0.697  0.001
  Li_i4  Li1+  0.483  0.800  0.397  0.001
  Li_i4  Li1+  0.497  0.914  0.297  0.001
  Li_i4  Li1+  0.683  0.800  0.197  0.001
  Li_i4  Li1+  0.697  0.914  0.097  0.001
  Li_i4  Li1+  0.083  0.200  0.997  0.001
  Li_i4  Li1+  0.097  0.314  0.897  0.001
  Li_i4  Li1+  0.283  0.600  0.197  0.001
  Li_i4  Li1+  0.297  0.714  0.097  0.001
  Li_i4  Li1+  0.283  0.200  0.197  0.001
  Li_i4  Li1+  0.297  0.314  0.097  0.001
  Li_i4  Li1+  0.683  0.800  0.397  0.001
  Li_i4  Li1+  0.697  0.914  0.297  0.001
  Li_i4  Li1+  0.483  0.800  0.597  0.001
  Li_i4  Li1+  0.497  0.914  0.497  0.001
  Li_i4  Li1+  0.483  -0.000  0.997  0.001
  Li_i4  Li1+  0.497  0.114  0.897  0.001
  Li_i4  Li1+  0.083  0.200  0.197  0.001
  Li_i4  Li1+  0.097  0.314  0.097  0.001
  Li_i4  Li1+  0.683  0.800  0.597  0.001
  Li_i4  Li1+  0.697  0.914  0.497  0.001
  Li_i4  Li1+  0.083  0.600  0.597  0.001
  Li_i4  Li1+  0.097  0.714  0.497  0.001
  Li_i4  Li1+  0.483  0.800  0.797  0.001
  Li_i4  Li1+  0.497  0.914  0.697  0.001
  Li_i4  Li1+  0.283  0.600  0.397  0.001
  Li_i4  Li1+  0.297  0.714  0.297  0.001
  Li_i4  Li1+  0.683  0.800  0.797  0.001
  Li_i4  Li1+  0.697  0.914  0.697  0.001
  Li_i4  Li1+  0.483  0.200  0.197  0.001
  Li_i4  Li1+  0.497  0.314  0.097  0.001
  Li_i4  Li1+  0.083  0.800  0.797  0.001
  Li_i4  Li1+  0.097  0.914  0.697  0.001
  Li_i4  Li1+  0.483  0.800  0.997  0.001
  Li_i4  Li1+  0.497  0.914  0.897  0.001
  Li_i4  Li1+  0.683  0.800  0.997  0.001
  Li_i4  Li1+  0.697  0.914  0.897  0.001
  Li_i4  Li1+  0.283  0.200  0.397  0.001
  Li_i4  Li1+  0.297  0.314  0.297  0.001
  Li_i4  Li1+  0.083  0.200  0.597  0.001
  Li_i4  Li1+  0.097  0.314  0.497  0.001
  Li_i4  Li1+  0.483  0.200  0.397  0.001
  Li_i4  Li1+  0.497  0.314  0.297  0.001
  Li_i4  Li1+  0.883  0.000  0.197  0.001
  Li_i4  Li1+  0.897  0.114  0.097  0.001
  Li_i4  Li1+  0.683  0.000  0.197  0.001
  Li_i4  Li1+  0.697  0.114  0.097  0.001
  Li_i4  Li1+  0.283  0.600  0.597  0.001
  Li_i4  Li1+  0.297  0.714  0.497  0.001
  Li_i4  Li1+  0.083  0.400  0.797  0.001
  Li_i4  Li1+  0.097  0.514  0.697  0.001
  Li_i4  Li1+  0.883  0.000  0.397  0.001
  Li_i4  Li1+  0.897  0.114  0.297  0.001
  Li_i4  Li1+  0.083  -0.000  0.597  0.001
  Li_i4  Li1+  0.097  0.114  0.497  0.001
  Li_i4  Li1+  0.683  0.000  0.397  0.001
  Li_i4  Li1+  0.697  0.114  0.297  0.001
  Li_i4  Li1+  0.483  0.200  0.597  0.001
  Li_i4  Li1+  0.497  0.314  0.497  0.001
  Li_i4  Li1+  0.883  -0.000  0.597  0.001
  Li_i4  Li1+  0.897  0.114  0.497  0.001
  Li_i4  Li1+  0.283  0.200  0.597  0.001
  Li_i4  Li1+  0.297  0.314  0.497  0.001
  Li_i4  Li1+  0.283  0.600  0.797  0.001
  Li_i4  Li1+  0.297  0.714  0.697  0.001
  Li_i4  Li1+  0.683  -0.000  0.597  0.001
  Li_i4  Li1+  0.697  0.114  0.497  0.001
  Li_i4  Li1+  0.883  -0.000  0.797  0.001
  Li_i4  Li1+  0.897  0.114  0.697  0.001
  Li_i4  Li1+  0.083  0.800  0.997  0.001
  Li_i4  Li1+  0.097  0.914  0.897  0.001
  Li_i4  Li1+  0.483  0.200  0.797  0.001
  Li_i4  Li1+  0.497  0.314  0.697  0.001
  Li_i4  Li1+  0.083  0.600  0.797  0.001
  Li_i4  Li1+  0.097  0.714  0.697  0.001
  Li_i4  Li1+  0.883  -0.000  0.997  0.001
  Li_i4  Li1+  0.897  0.114  0.897  0.001
  Li_i4  Li1+  0.683  -0.000  0.797  0.001
  Li_i4  Li1+  0.697  0.114  0.697  0.001
  Li_i4  Li1+  0.083  0.400  0.197  0.001
  Li_i4  Li1+  0.097  0.514  0.097  0.001
  Li_i4  Li1+  0.283  0.600  0.997  0.001
  Li_i4  Li1+  0.297  0.714  0.897  0.001
  Li_i4  Li1+  0.883  0.200  0.197  0.001
  Li_i4  Li1+  0.897  0.314  0.097  0.001
  Li_i4  Li1+  0.483  0.200  0.997  0.001
  Li_i4  Li1+  0.497  0.314  0.897  0.001
  Li_i4  Li1+  0.683  -0.000  0.997  0.001
  Li_i4  Li1+  0.697  0.114  0.897  0.001
  Li_i4  Li1+  0.283  0.200  0.797  0.001
  Li_i4  Li1+  0.297  0.314  0.697  0.001
  Li_i4  Li1+  0.883  0.200  0.397  0.001
  Li_i4  Li1+  0.897  0.314  0.297  0.001
  Li_i4  Li1+  0.083  -0.000  0.997  0.001
  Li_i4  Li1+  0.097  0.114  0.897  0.001
  Li_i4  Li1+  0.283  0.000  0.197  0.001
  Li_i4  Li1+  0.297  0.114  0.097  0.001
  Li_i4  Li1+  0.683  0.200  0.197  0.001
  Li_i4  Li1+  0.697  0.314  0.097  0.001
  Li_i4  Li1+  0.883  0.200  0.597  0.001
  Li_i4  Li1+  0.897  0.314  0.497  0.001
  Li_i4  Li1+  0.483  0.400  0.197  0.001
  Li_i4  Li1+  0.497  0.514  0.097  0.001
  Li_i4  Li1+  0.283  0.800  0.197  0.001
  Li_i4  Li1+  0.297  0.914  0.097  0.001
  Li_i4  Li1+  0.083  0.400  0.997  0.001
  Li_i4  Li1+  0.097  0.514  0.897  0.001
  Li_i4  Li1+  0.883  0.200  0.797  0.001
  Li_i4  Li1+  0.897  0.314  0.697  0.001
  Li_i4  Li1+  0.683  0.200  0.397  0.001
  Li_i4  Li1+  0.697  0.314  0.297  0.001
  Li_i4  Li1+  0.283  0.200  0.997  0.001
  Li_i4  Li1+  0.297  0.314  0.897  0.001
  Li_i4  Li1+  0.483  0.400  0.397  0.001
  Li_i4  Li1+  0.497  0.514  0.297  0.001
  Li_i4  Li1+  0.883  0.200  0.997  0.001
  Li_i4  Li1+  0.897  0.314  0.897  0.001
  Li_i4  Li1+  0.083  0.600  0.997  0.001
  Li_i4  Li1+  0.097  0.714  0.897  0.001
  Li_i4  Li1+  0.683  0.200  0.597  0.001
  Li_i4  Li1+  0.697  0.314  0.497  0.001
  Li_i4  Li1+  0.283  0.800  0.397  0.001
  Li_i4  Li1+  0.297  0.914  0.297  0.001
  Li_i4  Li1+  0.883  0.400  0.197  0.001
  Li_i4  Li1+  0.897  0.514  0.097  0.001
  Li_i4  Li1+  0.083  -0.000  0.797  0.001
  Li_i4  Li1+  0.097  0.114  0.697  0.001
  Li_i4  Li1+  0.483  0.400  0.597  0.001
  Li_i4  Li1+  0.497  0.514  0.497  0.001
  Li_i4  Li1+  0.683  0.200  0.797  0.001
  Li_i4  Li1+  0.697  0.314  0.697  0.001
  Li_i4  Li1+  0.883  0.400  0.397  0.001
  Li_i4  Li1+  0.897  0.514  0.297  0.001
  Li_i4  Li1+  0.283  0.000  0.397  0.001
  Li_i4  Li1+  0.297  0.114  0.297  0.001
  Li_i4  Li1+  0.283  0.400  0.197  0.001
  Li_i4  Li1+  0.297  0.514  0.097  0.001
  Li_i4  Li1+  0.283  0.800  0.597  0.001
  Li_i4  Li1+  0.297  0.914  0.497  0.001
  Li_i4  Li1+  0.883  0.400  0.597  0.001
  Li_i4  Li1+  0.897  0.514  0.497  0.001
  Li_i4  Li1+  0.683  0.200  0.997  0.001
  Li_i4  Li1+  0.697  0.314  0.897  0.001
  Li_i4  Li1+  0.483  0.400  0.797  0.001
  Li_i4  Li1+  0.497  0.514  0.697  0.001
  Li_i4  Li1+  0.083  0.200  0.797  0.001
  Li_i4  Li1+  0.097  0.314  0.697  0.001
  Li_i4  Li1+  0.883  0.400  0.797  0.001
  Li_i4  Li1+  0.897  0.514  0.697  0.001
  Li_i4  Li1+  0.083  0.400  0.397  0.001
  Li_i4  Li1+  0.097  0.514  0.297  0.001
  Li_i4  Li1+  0.683  0.400  0.197  0.001
  Li_i4  Li1+  0.697  0.514  0.097  0.001
  Li_i4  Li1+  0.083  0.800  0.197  0.001
  Li_i4  Li1+  0.097  0.914  0.097  0.001
  Li_i4  Li1+  0.883  0.400  0.997  0.001
  Li_i4  Li1+  0.897  0.514  0.897  0.001
  Li_i4  Li1+  0.483  0.400  0.997  0.001
  Li_i4  Li1+  0.497  0.514  0.897  0.001
  Li_i4  Li1+  0.283  0.800  0.797  0.001
  Li_i4  Li1+  0.297  0.914  0.697  0.001
  Li_i4  Li1+  0.683  0.400  0.397  0.001
  Li_i4  Li1+  0.697  0.514  0.297  0.001
  Li_i4  Li1+  0.883  0.600  0.197  0.001
  Li_i4  Li1+  0.897  0.714  0.097  0.001
  Li_i4  Li1+  0.283  0.400  0.397  0.001
  Li_i4  Li1+  0.297  0.514  0.297  0.001
  Li_i4  Li1+  0.283  -0.000  0.597  0.001
  Li_i4  Li1+  0.297  0.114  0.497  0.001
  Li_i4  Li1+  0.483  0.600  0.197  0.001
  Li_i4  Li1+  0.497  0.714  0.097  0.001
  Li_i4  Li1+  0.883  0.600  0.397  0.001
  Li_i4  Li1+  0.897  0.714  0.297  0.001
  Li_i4  Li1+  0.683  0.400  0.597  0.001
  Li_i4  Li1+  0.697  0.514  0.497  0.001
  Li_i4  Li1+  0.083  0.600  0.197  0.001
  Li_i4  Li1+  0.097  0.714  0.097  0.001
  Li_i4  Li1+  0.283  0.800  0.997  0.001
  Li_i4  Li1+  0.297  0.914  0.897  0.001
  Li_i4  Li1+  0.883  0.600  0.597  0.001
  Li_i4  Li1+  0.897  0.714  0.497  0.001
  Li_i4  Li1+  0.083  0.200  0.397  0.001
  Li_i4  Li1+  0.097  0.314  0.297  0.001
  Li_i4  Li1+  0.683  0.400  0.797  0.001
  Li_i4  Li1+  0.697  0.514  0.697  0.001
  Li_i4  Li1+  0.483  0.600  0.397  0.001
  Li_i4  Li1+  0.497  0.714  0.297  0.001
  Li_i4  Li1+  0.883  0.600  0.797  0.001
  Li_i4  Li1+  0.897  0.714  0.697  0.001
  Li_i4  Li1+  0.283  0.400  0.597  0.001
  Li_i4  Li1+  0.297  0.514  0.497  0.001
  Li_i4  Li1+  0.083  0.000  0.397  0.001
  Li_i4  Li1+  0.097  0.114  0.297  0.001
  Li_i4  Li1+  0.683  0.400  0.997  0.001
  Li_i4  Li1+  0.697  0.514  0.897  0.001
  Li_i4  Li1+  0.883  0.600  0.997  0.001
  Li_i4  Li1+  0.897  0.714  0.897  0.001
  Li_i4  Li1+  0.483  0.000  0.197  0.001
  Li_i4  Li1+  0.497  0.114  0.097  0.001
  Li_i4  Li1+  0.483  0.600  0.597  0.001
  Li_i4  Li1+  0.497  0.714  0.497  0.001
  Li_i4  Li1+  0.283  -0.000  0.797  0.001
  Li_i4  Li1+  0.297  0.114  0.697  0.001
  Li_i4  Li1+  0.883  0.800  0.197  0.001
  Li_i4  Li1+  0.897  0.914  0.097  0.001
  Li_i4  Li1+  0.683  0.600  0.197  0.001
  Li_i4  Li1+  0.697  0.714  0.097  0.001
  Li_i4  Li1+  0.083  0.800  0.397  0.001
  Li_i4  Li1+  0.097  0.914  0.297  0.001
  Li_i4  Li1+  0.283  0.400  0.797  0.001
  Li_i4  Li1+  0.297  0.514  0.697  0.001
  Li_i4  Li1+  0.883  0.800  0.397  0.001
  Li_i4  Li1+  0.897  0.914  0.297  0.001
  Li_i4  Li1+  0.483  0.600  0.797  0.001
  Li_i4  Li1+  0.497  0.714  0.697  0.001
  Li_i4  Li1+  0.683  0.600  0.397  0.001
  Li_i4  Li1+  0.697  0.714  0.297  0.001
  Li_i4  Li1+  0.483  0.000  0.397  0.001
  Li_i4  Li1+  0.497  0.114  0.297  0.001
  Li_i4  Li1+  0.883  0.800  0.597  0.001
  Li_i4  Li1+  0.897  0.914  0.497  0.001
  Li_i4  Li1+  0.083  0.000  0.197  0.001
  Li_i4  Li1+  0.097  0.114  0.097  0.001
  Li_i4  Li1+  0.083  0.600  0.397  0.001
  Li_i4  Li1+  0.097  0.714  0.297  0.001
  Li_i4  Li1+  0.683  0.600  0.597  0.001
  Li_i4  Li1+  0.697  0.714  0.497  0.001
  Li_i4  Li1+  0.883  0.800  0.797  0.001
  Li_i4  Li1+  0.897  0.914  0.697  0.001
  Li_i4  Li1+  0.483  0.600  0.997  0.001
  Li_i4  Li1+  0.497  0.714  0.897  0.001
  Li_i4  Li1+  0.283  -0.000  0.997  0.001
  Li_i4  Li1+  0.297  0.114  0.897  0.001
  Li_i4  Li1+  0.483  -0.000  0.597  0.001
  Li_i4  Li1+  0.497  0.114  0.497  0.001
  Li_i4  Li1+  0.883  0.800  0.997  0.001
  Li_i4  Li1+  0.897  0.914  0.897  0.001
  Li_i4  Li1+  0.683  0.600  0.797  0.001
  Li_i5  Li1+  0.317  0.200  0.403  0.001
  Li_i5  Li1+  0.103  0.286  0.103  0.001
  Li_i5  Li1+  0.103  0.486  0.703  0.001
  Li_i5  Li1+  0.117  0.200  0.603  0.001
  Li_i5  Li1+  0.503  0.086  0.303  0.001
  Li_i5  Li1+  0.303  0.086  0.303  0.001
  Li_i5  Li1+  0.903  0.086  0.103  0.001
  Li_i5  Li1+  0.703  0.286  0.103  0.001
  Li_i5  Li1+  0.917  -0.000  0.003  0.001
  Li_i5  Li1+  0.503  0.486  0.903  0.001
  Li_i5  Li1+  0.717  0.200  0.003  0.001
  Li_i5  Li1+  0.517  -0.000  0.203  0.001
  Li_i5  Li1+  0.517  0.400  0.803  0.001
  Li_i5  Li1+  0.117  0.400  0.603  0.001
  Li_i5  Li1+  0.303  0.686  0.303  0.001
  Li_i5  Li1+  0.317  -0.000  0.203  0.001
  Li_i5  Li1+  0.903  0.086  0.303  0.001
  Li_i5  Li1+  0.317  0.600  0.203  0.001
  Li_i5  Li1+  0.917  -0.000  0.203  0.001
  Li_i5  Li1+  0.103  0.086  0.903  0.001
  Li_i5  Li1+  0.703  0.286  0.303  0.001
  Li_i5  Li1+  0.303  0.286  0.703  0.001
  Li_i5  Li1+  0.717  0.200  0.203  0.001
  Li_i5  Li1+  0.103  0.886  0.303  0.001
  Li_i5  Li1+  0.503  0.686  0.103  0.001
  Li_i5  Li1+  0.503  0.086  0.503  0.001
  Li_i5  Li1+  0.903  0.086  0.503  0.001
  Li_i5  Li1+  0.517  0.600  0.003  0.001
  Li_i5  Li1+  0.917  0.000  0.403  0.001
  Li_i5  Li1+  0.317  0.200  0.603  0.001
  Li_i5  Li1+  0.517  0.000  0.403  0.001
  Li_i5  Li1+  0.117  0.200  0.003  0.001
  Li_i5  Li1+  0.703  0.286  0.503  0.001
  Li_i5  Li1+  0.117  0.800  0.203  0.001
  Li_i5  Li1+  0.717  0.200  0.403  0.001
  Li_i5  Li1+  0.117  -0.000  0.603  0.001
  Li_i5  Li1+  0.903  0.086  0.703  0.001
  Li_i5  Li1+  0.303  0.686  0.503  0.001
  Li_i5  Li1+  0.917  -0.000  0.603  0.001
  Li_i5  Li1+  0.103  0.686  0.503  0.001
  Li_i5  Li1+  0.503  0.686  0.303  0.001
  Li_i5  Li1+  0.317  0.600  0.403  0.001
  Li_i5  Li1+  0.517  0.600  0.203  0.001
  Li_i5  Li1+  0.117  -0.000  0.803  0.001
  Li_i5  Li1+  0.703  0.286  0.703  0.001
  Li_i5  Li1+  0.503  0.086  0.703  0.001
  Li_i5  Li1+  0.903  0.086  0.903  0.001
  Li_i5  Li1+  0.717  0.200  0.603  0.001
  Li_i5  Li1+  0.917  -0.000  0.803  0.001
  Li_i5  Li1+  0.303  0.086  0.503  0.001
  Li_i5  Li1+  0.517  -0.000  0.603  0.001
  Li_i5  Li1+  0.117  0.600  0.403  0.001
  Li_i5  Li1+  0.303  0.286  0.903  0.001
  Li_i5  Li1+  0.317  0.000  0.403  0.001
  Li_i5  Li1+  0.503  0.686  0.503  0.001
  Li_i5  Li1+  0.317  0.200  0.803  0.001
  Li_i5  Li1+  0.903  0.286  0.103  0.001
  Li_i5  Li1+  0.703  0.286  0.903  0.001
  Li_i5  Li1+  0.917  0.200  0.003  0.001
  Li_i5  Li1+  0.517  0.600  0.403  0.001
  Li_i5  Li1+  0.717  0.200  0.803  0.001
  Li_i5  Li1+  0.117  -0.000  0.003  0.001
  Li_i5  Li1+  0.303  0.686  0.703  0.001
  Li_i5  Li1+  0.103  0.486  0.303  0.001
  Li_i5  Li1+  0.503  0.086  0.903  0.001
  Li_i5  Li1+  0.317  0.600  0.603  0.001
  Li_i5  Li1+  0.903  0.286  0.303  0.001
  Li_i5  Li1+  0.517  -0.000  0.803  0.001
  Li_i5  Li1+  0.917  0.200  0.203  0.001
  Li_i5  Li1+  0.103  0.286  0.503  0.001
  Li_i5  Li1+  0.703  0.486  0.103  0.001
  Li_i5  Li1+  0.503  0.686  0.703  0.001
  Li_i5  Li1+  0.717  0.400  0.003  0.001
  Li_i5  Li1+  0.103  0.886  0.503  0.001
  Li_i5  Li1+  0.517  0.600  0.603  0.001
  Li_i5  Li1+  0.103  0.486  0.903  0.001
  Li_i5  Li1+  0.903  0.286  0.503  0.001
  Li_i5  Li1+  0.117  0.800  0.403  0.001
  Li_i5  Li1+  0.917  0.200  0.403  0.001
  Li_i5  Li1+  0.117  0.400  0.203  0.001
  Li_i5  Li1+  0.303  0.486  0.103  0.001
  Li_i5  Li1+  0.303  0.086  0.703  0.001
  Li_i5  Li1+  0.703  0.486  0.303  0.001
  Li_i5  Li1+  0.503  0.286  0.103  0.001
  Li_i5  Li1+  0.717  0.400  0.203  0.001
  Li_i5  Li1+  0.303  0.686  0.903  0.001
  Li_i5  Li1+  0.903  0.286  0.703  0.001
  Li_i5  Li1+  0.503  0.686  0.903  0.001
  Li_i5  Li1+  0.917  0.200  0.603  0.001
  Li_i5  Li1+  0.517  0.200  0.003  0.001
  Li_i5  Li1+  0.517  0.600  0.803  0.001
  Li_i5  Li1+  0.317  0.400  0.003  0.001
  Li_i5  Li1+  0.317  0.600  0.803  0.001
  Li_i5  Li1+  0.117  0.400  0.803  0.001
  Li_i5  Li1+  0.703  0.486  0.503  0.001
  Li_i5  Li1+  0.317  -0.000  0.603  0.001
  Li_i5  Li1+  0.903  0.286  0.903  0.001
  Li_i5  Li1+  0.717  0.400  0.403  0.001
  Li_i5  Li1+  0.917  0.200  0.803  0.001
  Li_i5  Li1+  0.103  0.086  0.503  0.001
  Li_i5  Li1+  0.103  0.686  0.703  0.001
  Li_i5  Li1+  0.103  0.286  0.903  0.001
  Li_i5  Li1+  0.503  0.886  0.103  0.001
  Li_i5  Li1+  0.503  0.286  0.303  0.001
  Li_i5  Li1+  0.517  0.800  0.003  0.001
  Li_i5  Li1+  0.117  0.600  0.603  0.001
  Li_i5  Li1+  0.903  0.486  0.103  0.001
  Li_i5  Li1+  0.703  0.486  0.703  0.001
  Li_i5  Li1+  0.917  0.400  0.003  0.001
  Li_i5  Li1+  0.517  0.200  0.203  0.001
  Li_i5  Li1+  0.717  0.400  0.603  0.001
  Li_i5  Li1+  0.117  0.200  0.403  0.001
  Li_i5  Li1+  0.303  0.886  0.103  0.001
  Li_i5  Li1+  0.303  0.486  0.303  0.001
  Li_i5  Li1+  0.317  0.800  0.003  0.001
  Li_i5  Li1+  0.103  0.886  0.703  0.001
  Li_i5  Li1+  0.903  0.486  0.303  0.001
  Li_i5  Li1+  0.503  0.886  0.303  0.001
  Li_i5  Li1+  0.917  0.400  0.203  0.001
  Li_i5  Li1+  0.317  0.400  0.203  0.001
  Li_i5  Li1+  0.703  0.486  0.903  0.001
  Li_i5  Li1+  0.517  0.800  0.203  0.001
  Li_i5  Li1+  0.717  0.400  0.803  0.001
  Li_i5  Li1+  0.117  0.200  0.803  0.001
  Li_i5  Li1+  0.503  0.286  0.503  0.001
  Li_i5  Li1+  0.303  0.086  0.903  0.001
  Li_i5  Li1+  0.903  0.486  0.503  0.001
  Li_i5  Li1+  0.517  0.200  0.403  0.001
  Li_i5  Li1+  0.917  0.400  0.403  0.001
  Li_i5  Li1+  0.117  0.800  0.603  0.001
  Li_i5  Li1+  0.317  -0.000  0.803  0.001
  Li_i5  Li1+  0.117  -0.000  0.203  0.001
  Li_i5  Li1+  0.703  0.686  0.103  0.001
  Li_i5  Li1+  0.503  0.886  0.503  0.001
  Li_i5  Li1+  0.717  0.600  0.003  0.001
  Li_i5  Li1+  0.303  0.886  0.303  0.001
  Li_i5  Li1+  0.903  0.486  0.703  0.001
  Li_i5  Li1+  0.517  0.800  0.403  0.001
  Li_i5  Li1+  0.917  0.400  0.603  0.001
  Li_i5  Li1+  0.117  0.000  0.403  0.001
  Li_i5  Li1+  0.317  0.800  0.203  0.001
  Li_i5  Li1+  0.103  0.086  0.103  0.001
  Li_i5  Li1+  0.503  0.286  0.703  0.001
  Li_i5  Li1+  0.303  0.486  0.503  0.001
  Li_i5  Li1+  0.703  0.686  0.303  0.001
  Li_i5  Li1+  0.517  0.200  0.603  0.001
  Li_i5  Li1+  0.903  0.486  0.903  0.001
  Li_i5  Li1+  0.717  0.600  0.203  0.001
  Li_i5  Li1+  0.917  0.400  0.803  0.001
  Li_i5  Li1+  0.103  0.686  0.103  0.001
  Li_i5  Li1+  0.503  0.886  0.703  0.001
  Li_i5  Li1+  0.317  0.400  0.403  0.001
  Li_i5  Li1+  0.517  0.800  0.603  0.001
  Li_i5  Li1+  0.103  0.486  0.503  0.001
  Li_i5  Li1+  0.103  0.686  0.903  0.001
  Li_i5  Li1+  0.117  0.600  0.003  0.001
  Li_i5  Li1+  0.903  0.686  0.103  0.001
  Li_i5  Li1+  0.703  0.686  0.503  0.001
  Li_i5  Li1+  0.917  0.600  0.003  0.001
  Li_i5  Li1+  0.303  0.886  0.503  0.001
  Li_i5  Li1+  0.717  0.600  0.403  0.001
  Li_i5  Li1+  0.303  0.286  0.103  0.001
  Li_i5  Li1+  0.503  0.286  0.903  0.001
  Li_i5  Li1+  0.317  0.800  0.403  0.001
  Li_i5  Li1+  0.503  0.886  0.903  0.001
  Li_i5  Li1+  0.517  0.200  0.803  0.001
  Li_i5  Li1+  0.903  0.686  0.303  0.001
  Li_i5  Li1+  0.517  0.800  0.803  0.001
  Li_i5  Li1+  0.917  0.600  0.203  0.001
  Li_i5  Li1+  0.103  0.886  0.903  0.001
  Li_i5  Li1+  0.703  0.686  0.703  0.001
  Li_i5  Li1+  0.317  0.200  0.003  0.001
  Li_i5  Li1+  0.717  0.600  0.603  0.001
  Li_i5  Li1+  0.117  0.600  0.803  0.001
  Li_i5  Li1+  0.303  0.486  0.703  0.001
  Li_i5  Li1+  0.117  0.800  0.803  0.001
  Li_i5  Li1+  0.903  0.686  0.503  0.001
  Li_i5  Li1+  0.317  0.400  0.603  0.001
  Li_i5  Li1+  0.917  0.600  0.403  0.001
  Li_i5  Li1+  0.103  0.286  0.303  0.001
  Li_i5  Li1+  0.703  0.086  0.103  0.001
  Li_i5  Li1+  0.503  0.486  0.103  0.001
  Li_i5  Li1+  0.703  0.686  0.903  0.001
  Li_i5  Li1+  0.717  -0.000  0.003  0.001
  Li_i5  Li1+  0.717  0.600  0.803  0.001
  Li_i5  Li1+  0.303  0.886  0.703  0.001
  Li_i5  Li1+  0.903  0.686  0.703  0.001
  Li_i5  Li1+  0.517  0.400  0.003  0.001
  Li_i5  Li1+  0.917  0.600  0.603  0.001
  Li_i5  Li1+  0.117  0.400  0.403  0.001
  Li_i5  Li1+  0.317  0.800  0.603  0.001
  Li_i5  Li1+  0.103  0.086  0.703  0.001
  Li_i5  Li1+  0.117  0.200  0.203  0.001
  Li_i5  Li1+  0.103  0.086  0.303  0.001
  Li_i5  Li1+  0.703  0.886  0.103  0.001
  Li_i5  Li1+  0.703  0.086  0.303  0.001
  Li_i5  Li1+  0.903  0.686  0.903  0.001
  Li_i5  Li1+  0.717  0.800  0.003  0.001
  Li_i5  Li1+  0.917  0.600  0.803  0.001
  Li_i5  Li1+  0.303  0.286  0.303  0.001
  Li_i5  Li1+  0.717  -0.000  0.203  0.001
  Li_i5  Li1+  0.103  0.486  0.103  0.001
  Li_i5  Li1+  0.503  0.486  0.303  0.001
  Li_i5  Li1+  0.303  0.486  0.903  0.001
  Li_i5  Li1+  0.517  0.400  0.203  0.001
  Li_i5  Li1+  0.317  0.200  0.203  0.001
  Li_i5  Li1+  0.903  0.886  0.103  0.001
  Li_i5  Li1+  0.703  0.886  0.303  0.001
  Li_i5  Li1+  0.917  0.800  0.003  0.001
  Li_i5  Li1+  0.303  0.886  0.903  0.001
  Li_i5  Li1+  0.717  0.800  0.203  0.001
  Li_i5  Li1+  0.317  0.400  0.803  0.001
  Li_i5  Li1+  0.703  0.086  0.503  0.001
  Li_i5  Li1+  0.317  0.800  0.803  0.001
  Li_i5  Li1+  0.717  0.000  0.403  0.001
  Li_i5  Li1+  0.103  0.286  0.703  0.001
  Li_i5  Li1+  0.903  0.886  0.303  0.001
  Li_i5  Li1+  0.303  0.086  0.103  0.001
  Li_i5  Li1+  0.917  0.800  0.203  0.001
  Li_i5  Li1+  0.103  0.886  0.103  0.001
  Li_i5  Li1+  0.703  0.886  0.503  0.001
  Li_i5  Li1+  0.503  0.486  0.503  0.001
  Li_i5  Li1+  0.717  0.800  0.403  0.001
  Li_i5  Li1+  0.317  -0.000  0.003  0.001
  Li_i5  Li1+  0.517  0.400  0.403  0.001
  Li_i5  Li1+  0.103  0.686  0.303  0.001
  Li_i5  Li1+  0.903  0.886  0.503  0.001
  Li_i5  Li1+  0.703  0.086  0.703  0.001
  Li_i5  Li1+  0.917  0.800  0.403  0.001
  Li_i5  Li1+  0.117  0.800  0.003  0.001
  Li_i5  Li1+  0.717  -0.000  0.603  0.001
  Li_i5  Li1+  0.117  0.400  0.003  0.001
  Li_i5  Li1+  0.703  0.886  0.703  0.001
  Li_i5  Li1+  0.503  0.086  0.103  0.001
  Li_i5  Li1+  0.717  0.800  0.603  0.001
  Li_i5  Li1+  0.303  0.686  0.103  0.001
  Li_i5  Li1+  0.903  0.886  0.703  0.001
  Li_i5  Li1+  0.517  -0.000  0.003  0.001
  Li_i5  Li1+  0.917  0.800  0.603  0.001
  Li_i5  Li1+  0.303  0.286  0.503  0.001
  Li_i5  Li1+  0.503  0.486  0.703  0.001
  Li_i5  Li1+  0.317  0.600  0.003  0.001
  Li_i5  Li1+  0.703  0.086  0.903  0.001
  Li_i5  Li1+  0.517  0.400  0.603  0.001
  Li_i5  Li1+  0.703  0.886  0.903  0.001
  Li_i5  Li1+  0.717  -0.000  0.803  0.001
  Li_i5  Li1+  0.903  0.886  0.903  0.001
  Li_i5  Li1+  0.717  0.800  0.803  0.001
  Li_i5  Li1+  0.917  0.800  0.803  0.001
  Li_i5  Li1+  0.117  0.600  0.203  0.001
  Li0  Li1+  0.372  0.825  0.753  1.000
  Li0  Li1+  0.172  0.625  0.753  1.000
  Li0  Li1+  0.372  0.825  0.953  1.000
  Li0  Li1+  0.572  0.025  0.153  1.000
  Li0  Li1+  0.172  0.025  0.553  1.000
  Li0  Li1+  0.172  0.625  0.953  1.000
  Li0  Li1+  0.572  0.025  0.353  1.000
  Li0  Li1+  0.572  0.025  0.553  1.000
  Li0  Li1+  0.172  0.225  0.553  1.000
  Li0  Li1+  0.572  0.025  0.753  1.000
  Li0  Li1+  0.172  0.825  0.153  1.000
  Li0  Li1+  0.572  0.025  0.953  1.000
  Li0  Li1+  0.572  0.225  0.153  1.000
  Li0  Li1+  0.572  0.225  0.353  1.000
  Li0  Li1+  0.172  0.825  0.353  1.000
  Li0  Li1+  0.572  0.225  0.553  1.000
  Li0  Li1+  0.572  0.225  0.753  1.000
  Li0  Li1+  0.172  0.825  0.553  1.000
  Li0  Li1+  0.572  0.225  0.953  1.000
  Li0  Li1+  0.172  0.225  0.753  1.000
  Li0  Li1+  0.572  0.425  0.153  1.000
  Li0  Li1+  0.572  0.425  0.353  1.000
  Li0  Li1+  0.172  0.825  0.753  1.000
  Li0  Li1+  0.572  0.425  0.553  1.000
  Li0  Li1+  0.572  0.425  0.753  1.000
  Li0  Li1+  0.172  0.825  0.953  1.000
  Li0  Li1+  0.572  0.425  0.953  1.000
  Li0  Li1+  0.572  0.625  0.153  1.000
  Li0  Li1+  0.572  0.625  0.353  1.000
  Li0  Li1+  0.172  0.225  0.953  1.000
  Li0  Li1+  0.372  0.025  0.153  1.000
  Li0  Li1+  0.572  0.625  0.553  1.000
  Li0  Li1+  0.572  0.625  0.753  1.000
  Li0  Li1+  0.572  0.625  0.953  1.000
  Li0  Li1+  0.372  0.025  0.353  1.000
  Li0  Li1+  0.172  0.025  0.753  1.000
  Li0  Li1+  0.572  0.825  0.153  1.000
  Li0  Li1+  0.572  0.825  0.353  1.000
  Li0  Li1+  0.372  0.025  0.553  1.000
  Li0  Li1+  0.572  0.825  0.553  1.000
  Li0  Li1+  0.572  0.825  0.753  1.000
  Li0  Li1+  0.172  0.425  0.153  1.000
  Li0  Li1+  0.572  0.825  0.953  1.000
  Li0  Li1+  0.372  0.025  0.753  1.000
  Li0  Li1+  0.772  0.025  0.153  1.000
  Li0  Li1+  0.772  0.025  0.353  1.000
  Li0  Li1+  0.372  0.025  0.953  1.000
  Li0  Li1+  0.772  0.025  0.553  1.000
  Li0  Li1+  0.772  0.025  0.753  1.000
  Li0  Li1+  0.772  0.025  0.953  1.000
  Li0  Li1+  0.372  0.225  0.153  1.000
  Li0  Li1+  0.772  0.225  0.153  1.000
  Li0  Li1+  0.172  0.425  0.353  1.000
  Li0  Li1+  0.772  0.225  0.353  1.000
  Li0  Li1+  0.772  0.225  0.553  1.000
  Li0  Li1+  0.372  0.225  0.353  1.000
  Li0  Li1+  0.772  0.225  0.753  1.000
  Li0  Li1+  0.772  0.225  0.953  1.000
  Li0  Li1+  0.372  0.225  0.553  1.000
  Li0  Li1+  0.772  0.425  0.153  1.000
  Li0  Li1+  0.772  0.425  0.353  1.000
  Li0  Li1+  0.172  0.025  0.953  1.000
  Li0  Li1+  0.172  0.425  0.553  1.000
  Li0  Li1+  0.772  0.425  0.553  1.000
  Li0  Li1+  0.372  0.225  0.753  1.000
  Li0  Li1+  0.772  0.425  0.753  1.000
  Li0  Li1+  0.772  0.425  0.953  1.000
  Li0  Li1+  0.372  0.225  0.953  1.000
  Li0  Li1+  0.772  0.625  0.153  1.000
  Li0  Li1+  0.772  0.625  0.353  1.000
  Li0  Li1+  0.172  0.025  0.353  1.000
  Li0  Li1+  0.772  0.625  0.553  1.000
  Li0  Li1+  0.372  0.425  0.153  1.000
  Li0  Li1+  0.772  0.625  0.753  1.000
  Li0  Li1+  0.172  0.425  0.753  1.000
  Li0  Li1+  0.772  0.625  0.953  1.000
  Li0  Li1+  0.772  0.825  0.153  1.000
  Li0  Li1+  0.372  0.425  0.353  1.000
  Li0  Li1+  0.772  0.825  0.353  1.000
  Li0  Li1+  0.772  0.825  0.553  1.000
  Li0  Li1+  0.372  0.425  0.553  1.000
  Li0  Li1+  0.772  0.825  0.753  1.000
  Li0  Li1+  0.772  0.825  0.953  1.000
  Li0  Li1+  0.972  0.025  0.153  1.000
  Li0  Li1+  0.172  0.425  0.953  1.000
  Li0  Li1+  0.372  0.425  0.753  1.000
  Li0  Li1+  0.972  0.025  0.353  1.000
  Li0  Li1+  0.972  0.025  0.553  1.000
  Li0  Li1+  0.372  0.425  0.953  1.000
  Li0  Li1+  0.972  0.025  0.753  1.000
  Li0  Li1+  0.972  0.025  0.953  1.000
  Li0  Li1+  0.172  0.225  0.153  1.000
  Li0  Li1+  0.972  0.225  0.153  1.000
  Li0  Li1+  0.372  0.625  0.153  1.000
  Li0  Li1+  0.972  0.225  0.353  1.000
  Li0  Li1+  0.972  0.225  0.553  1.000
  Li0  Li1+  0.172  0.625  0.153  1.000
  Li0  Li1+  0.972  0.225  0.753  1.000
  Li0  Li1+  0.372  0.625  0.353  1.000
  Li0  Li1+  0.972  0.225  0.953  1.000
  Li0  Li1+  0.972  0.425  0.153  1.000
  Li0  Li1+  0.372  0.625  0.553  1.000
  Li0  Li1+  0.972  0.425  0.353  1.000
  Li0  Li1+  0.972  0.425  0.553  1.000
  Li0  Li1+  0.972  0.425  0.753  1.000
  Li0  Li1+  0.372  0.625  0.753  1.000
  Li0  Li1+  0.172  0.625  0.353  1.000
  Li0  Li1+  0.972  0.425  0.953  1.000
  Li0  Li1+  0.972  0.625  0.153  1.000
  Li0  Li1+  0.372  0.625  0.953  1.000
  Li0  Li1+  0.972  0.625  0.353  1.000
  Li0  Li1+  0.972  0.625  0.553  1.000
  Li0  Li1+  0.172  0.025  0.153  1.000
  Li0  Li1+  0.972  0.625  0.753  1.000
  Li0  Li1+  0.372  0.825  0.153  1.000
  Li0  Li1+  0.972  0.625  0.953  1.000
  Li0  Li1+  0.972  0.825  0.153  1.000
  Li0  Li1+  0.172  0.625  0.553  1.000
  Li0  Li1+  0.972  0.825  0.353  1.000
  Li0  Li1+  0.372  0.825  0.353  1.000
  Li0  Li1+  0.972  0.825  0.553  1.000
  Li0  Li1+  0.172  0.225  0.353  1.000
  Li0  Li1+  0.972  0.825  0.753  1.000
  Li0  Li1+  0.372  0.825  0.553  1.000
  Li0  Li1+  0.972  0.825  0.953  1.000
  Li1  Li1+  0.628  0.581  0.453  1.000
  Li1  Li1+  0.428  0.381  0.453  1.000
  Li1  Li1+  0.028  0.981  0.453  1.000
  Li1  Li1+  0.428  0.181  0.053  1.000
  Li1  Li1+  0.628  0.581  0.653  1.000
  Li1  Li1+  0.428  0.781  0.653  1.000
  Li1  Li1+  0.228  0.181  0.253  1.000
  Li1  Li1+  0.228  0.381  0.853  1.000
  Li1  Li1+  0.628  0.581  0.853  1.000
  Li1  Li1+  0.028  0.581  0.653  1.000
  Li1  Li1+  0.428  0.381  0.653  1.000
  Li1  Li1+  0.628  0.781  0.053  1.000
  Li1  Li1+  0.428  0.781  0.853  1.000
  Li1  Li1+  0.028  0.581  0.053  1.000
  Li1  Li1+  0.628  0.781  0.253  1.000
  Li1  Li1+  0.228  0.581  0.053  1.000
  Li1  Li1+  0.028  0.181  0.653  1.000
  Li1  Li1+  0.428  0.181  0.653  1.000
  Li1  Li1+  0.628  0.781  0.453  1.000
  Li1  Li1+  0.028  0.381  0.053  1.000
  Li1  Li1+  0.428  0.981  0.053  1.000
  Li1  Li1+  0.628  0.781  0.653  1.000
  Li1  Li1+  0.428  0.381  0.853  1.000
  Li1  Li1+  0.228  0.181  0.453  1.000
  Li1  Li1+  0.628  0.781  0.853  1.000
  Li1  Li1+  0.228  0.581  0.253  1.000
  Li1  Li1+  0.228  0.981  0.853  1.000
  Li1  Li1+  0.428  0.981  0.253  1.000
  Li1  Li1+  0.628  0.981  0.053  1.000
  Li1  Li1+  0.428  0.181  0.253  1.000
  Li1  Li1+  0.428  0.981  0.453  1.000
  Li1  Li1+  0.628  0.981  0.253  1.000
  Li1  Li1+  0.028  0.581  0.853  1.000
  Li1  Li1+  0.228  0.581  0.453  1.000
  Li1  Li1+  0.428  0.581  0.053  1.000
  Li1  Li1+  0.628  0.981  0.453  1.000
  Li1  Li1+  0.028  0.181  0.253  1.000
  Li1  Li1+  0.628  0.981  0.653  1.000
  Li1  Li1+  0.428  0.981  0.653  1.000
  Li1  Li1+  0.228  0.181  0.653  1.000
  Li1  Li1+  0.628  0.981  0.853  1.000
  Li1  Li1+  0.228  0.581  0.653  1.000
  Li1  Li1+  0.028  0.981  0.653  1.000
  Li1  Li1+  0.828  0.181  0.053  1.000
  Li1  Li1+  0.428  0.981  0.853  1.000
  Li1  Li1+  0.428  0.181  0.853  1.000
  Li1  Li1+  0.828  0.181  0.253  1.000
  Li1  Li1+  0.228  0.981  0.653  1.000
  Li1  Li1+  0.628  0.181  0.053  1.000
  Li1  Li1+  0.228  0.581  0.853  1.000
  Li1  Li1+  0.828  0.181  0.453  1.000
  Li1  Li1+  0.428  0.581  0.253  1.000
  Li1  Li1+  0.028  0.781  0.053  1.000
  Li1  Li1+  0.828  0.181  0.653  1.000
  Li1  Li1+  0.028  0.181  0.853  1.000
  Li1  Li1+  0.028  0.381  0.453  1.000
  Li1  Li1+  0.828  0.181  0.853  1.000
  Li1  Li1+  0.028  0.181  0.453  1.000
  Li1  Li1+  0.228  0.781  0.053  1.000
  Li1  Li1+  0.228  0.181  0.853  1.000
  Li1  Li1+  0.828  0.381  0.053  1.000
  Li1  Li1+  0.628  0.181  0.253  1.000
  Li1  Li1+  0.028  0.581  0.253  1.000
  Li1  Li1+  0.828  0.381  0.253  1.000
  Li1  Li1+  0.428  0.581  0.453  1.000
  Li1  Li1+  0.628  0.181  0.453  1.000
  Li1  Li1+  0.828  0.381  0.453  1.000
  Li1  Li1+  0.228  0.781  0.253  1.000
  Li1  Li1+  0.428  0.381  0.053  1.000
  Li1  Li1+  0.028  0.381  0.853  1.000
  Li1  Li1+  0.828  0.381  0.653  1.000
  Li1  Li1+  0.628  0.181  0.653  1.000
  Li1  Li1+  0.028  0.181  0.053  1.000
  Li1  Li1+  0.828  0.381  0.853  1.000
  Li1  Li1+  0.228  0.781  0.453  1.000
  Li1  Li1+  0.228  0.381  0.053  1.000
  Li1  Li1+  0.828  0.581  0.053  1.000
  Li1  Li1+  0.028  0.781  0.253  1.000
  Li1  Li1+  0.028  0.381  0.253  1.000
  Li1  Li1+  0.028  0.981  0.253  1.000
  Li1  Li1+  0.828  0.581  0.253  1.000
  Li1  Li1+  0.628  0.181  0.853  1.000
  Li1  Li1+  0.028  0.981  0.853  1.000
  Li1  Li1+  0.828  0.581  0.453  1.000
  Li1  Li1+  0.228  0.781  0.653  1.000
  Li1  Li1+  0.628  0.381  0.053  1.000
  Li1  Li1+  0.828  0.581  0.653  1.000
  Li1  Li1+  0.428  0.581  0.653  1.000
  Li1  Li1+  0.828  0.581  0.853  1.000
  Li1  Li1+  0.028  0.781  0.853  1.000
  Li1  Li1+  0.428  0.581  0.853  1.000
  Li1  Li1+  0.628  0.381  0.253  1.000
  Li1  Li1+  0.228  0.781  0.853  1.000
  Li1  Li1+  0.828  0.781  0.053  1.000
  Li1  Li1+  0.228  0.381  0.253  1.000
  Li1  Li1+  0.828  0.781  0.253  1.000
  Li1  Li1+  0.028  0.781  0.453  1.000
  Li1  Li1+  0.028  0.381  0.653  1.000
  Li1  Li1+  0.628  0.381  0.453  1.000
  Li1  Li1+  0.828  0.781  0.453  1.000
  Li1  Li1+  0.228  0.981  0.053  1.000
  Li1  Li1+  0.028  0.581  0.453  1.000
  Li1  Li1+  0.428  0.381  0.253  1.000
  Li1  Li1+  0.828  0.781  0.653  1.000
  Li1  Li1+  0.428  0.781  0.053  1.000
  Li1  Li1+  0.828  0.781  0.853  1.000
  Li1  Li1+  0.628  0.381  0.653  1.000
  Li1  Li1+  0.228  0.381  0.453  1.000
  Li1  Li1+  0.828  0.981  0.053  1.000
  Li1  Li1+  0.228  0.981  0.253  1.000
  Li1  Li1+  0.228  0.181  0.053  1.000
  Li1  Li1+  0.828  0.981  0.253  1.000
  Li1  Li1+  0.628  0.381  0.853  1.000
  Li1  Li1+  0.428  0.181  0.453  1.000
  Li1  Li1+  0.628  0.581  0.053  1.000
  Li1  Li1+  0.828  0.981  0.453  1.000
  Li1  Li1+  0.228  0.981  0.453  1.000
  Li1  Li1+  0.428  0.781  0.253  1.000
  Li1  Li1+  0.828  0.981  0.653  1.000
  Li1  Li1+  0.028  0.981  0.053  1.000
  Li1  Li1+  0.028  0.781  0.653  1.000
  Li1  Li1+  0.628  0.581  0.253  1.000
  Li1  Li1+  0.828  0.981  0.853  1.000
  Li1  Li1+  0.228  0.381  0.653  1.000
  Li1  Li1+  0.428  0.781  0.453  1.000
  Li2  Li1+  0.728  0.978  0.950  1.000
  Li2  Li1+  0.328  0.378  0.350  1.000
  Li2  Li1+  0.528  0.378  0.750  1.000
  Li2  Li1+  0.728  0.378  0.550  1.000
  Li2  Li1+  0.328  0.578  0.750  1.000
  Li2  Li1+  0.928  0.178  0.150  1.000
  Li2  Li1+  0.128  0.178  0.750  1.000
  Li2  Li1+  0.528  0.578  0.750  1.000
  Li2  Li1+  0.128  0.178  0.350  1.000
  Li2  Li1+  0.528  0.978  0.350  1.000
  Li2  Li1+  0.928  0.178  0.350  1.000
  Li2  Li1+  0.728  0.378  0.750  1.000
  Li2  Li1+  0.128  0.578  0.150  1.000
  Li2  Li1+  0.328  0.178  0.550  1.000
  Li2  Li1+  0.928  0.178  0.550  1.000
  Li2  Li1+  0.328  0.578  0.950  1.000
  Li2  Li1+  0.128  0.978  0.950  1.000
  Li2  Li1+  0.728  0.378  0.950  1.000
  Li2  Li1+  0.328  0.378  0.550  1.000
  Li2  Li1+  0.928  0.178  0.750  1.000
  Li2  Li1+  0.128  0.578  0.550  1.000
  Li2  Li1+  0.128  0.978  0.550  1.000
  Li2  Li1+  0.528  0.978  0.550  1.000
  Li2  Li1+  0.928  0.178  0.950  1.000
  Li2  Li1+  0.728  0.578  0.150  1.000
  Li2  Li1+  0.328  0.978  0.750  1.000
  Li2  Li1+  0.128  0.378  0.950  1.000
  Li2  Li1+  0.528  0.578  0.950  1.000
  Li2  Li1+  0.128  0.778  0.150  1.000
  Li2  Li1+  0.328  0.778  0.150  1.000
  Li2  Li1+  0.928  0.378  0.150  1.000
  Li2  Li1+  0.728  0.578  0.350  1.000
  Li2  Li1+  0.528  0.978  0.750  1.000
  Li2  Li1+  0.528  0.378  0.150  1.000
  Li2  Li1+  0.928  0.378  0.350  1.000
  Li2  Li1+  0.528  0.378  0.950  1.000
  Li2  Li1+  0.328  0.378  0.750  1.000
  Li2  Li1+  0.528  0.178  0.350  1.000
  Li2  Li1+  0.728  0.578  0.550  1.000
  Li2  Li1+  0.928  0.378  0.550  1.000
  Li2  Li1+  0.328  0.178  0.750  1.000
  Li2  Li1+  0.328  0.778  0.350  1.000
  Li2  Li1+  0.528  0.778  0.150  1.000
  Li2  Li1+  0.528  0.978  0.950  1.000
  Li2  Li1+  0.928  0.378  0.750  1.000
  Li2  Li1+  0.128  0.978  0.350  1.000
  Li2  Li1+  0.728  0.578  0.750  1.000
  Li2  Li1+  0.128  0.978  0.150  1.000
  Li2  Li1+  0.928  0.378  0.950  1.000
  Li2  Li1+  0.528  0.178  0.750  1.000
  Li2  Li1+  0.728  0.178  0.150  1.000
  Li2  Li1+  0.728  0.578  0.950  1.000
  Li2  Li1+  0.328  0.378  0.950  1.000
  Li2  Li1+  0.928  0.578  0.150  1.000
  Li2  Li1+  0.328  0.778  0.550  1.000
  Li2  Li1+  0.328  0.178  0.150  1.000
  Li2  Li1+  0.528  0.778  0.350  1.000
  Li2  Li1+  0.528  0.578  0.150  1.000
  Li2  Li1+  0.928  0.578  0.350  1.000
  Li2  Li1+  0.728  0.778  0.150  1.000
  Li2  Li1+  0.128  0.778  0.350  1.000
  Li2  Li1+  0.528  0.378  0.350  1.000
  Li2  Li1+  0.728  0.178  0.350  1.000
  Li2  Li1+  0.928  0.578  0.550  1.000
  Li2  Li1+  0.328  0.978  0.950  1.000
  Li2  Li1+  0.728  0.778  0.350  1.000
  Li2  Li1+  0.328  0.178  0.950  1.000
  Li2  Li1+  0.328  0.778  0.750  1.000
  Li2  Li1+  0.928  0.578  0.750  1.000
  Li2  Li1+  0.128  0.578  0.750  1.000
  Li2  Li1+  0.528  0.778  0.550  1.000
  Li2  Li1+  0.528  0.178  0.150  1.000
  Li2  Li1+  0.928  0.578  0.950  1.000
  Li2  Li1+  0.728  0.178  0.550  1.000
  Li2  Li1+  0.328  0.578  0.150  1.000
  Li2  Li1+  0.728  0.778  0.550  1.000
  Li2  Li1+  0.128  0.778  0.950  1.000
  Li2  Li1+  0.128  0.378  0.350  1.000
  Li2  Li1+  0.928  0.778  0.150  1.000
  Li2  Li1+  0.328  0.778  0.950  1.000
  Li2  Li1+  0.128  0.978  0.750  1.000
  Li2  Li1+  0.128  0.578  0.350  1.000
  Li2  Li1+  0.928  0.778  0.350  1.000
  Li2  Li1+  0.728  0.778  0.750  1.000
  Li2  Li1+  0.528  0.578  0.350  1.000
  Li2  Li1+  0.728  0.178  0.750  1.000
  Li2  Li1+  0.128  0.178  0.550  1.000
  Li2  Li1+  0.528  0.778  0.750  1.000
  Li2  Li1+  0.928  0.778  0.550  1.000
  Li2  Li1+  0.528  0.378  0.550  1.000
  Li2  Li1+  0.728  0.778  0.950  1.000
  Li2  Li1+  0.328  0.178  0.350  1.000
  Li2  Li1+  0.128  0.178  0.150  1.000
  Li2  Li1+  0.328  0.978  0.150  1.000
  Li2  Li1+  0.928  0.778  0.750  1.000
  Li2  Li1+  0.128  0.778  0.550  1.000
  Li2  Li1+  0.328  0.578  0.350  1.000
  Li2  Li1+  0.328  0.378  0.150  1.000
  Li2  Li1+  0.928  0.778  0.950  1.000
  Li2  Li1+  0.728  0.978  0.150  1.000
  Li2  Li1+  0.728  0.178  0.950  1.000
  Li2  Li1+  0.128  0.178  0.950  1.000
  Li2  Li1+  0.528  0.178  0.950  1.000
  Li2  Li1+  0.928  0.978  0.150  1.000
  Li2  Li1+  0.728  0.978  0.350  1.000
  Li2  Li1+  0.328  0.978  0.350  1.000
  Li2  Li1+  0.128  0.778  0.750  1.000
  Li2  Li1+  0.728  0.378  0.150  1.000
  Li2  Li1+  0.928  0.978  0.350  1.000
  Li2  Li1+  0.528  0.778  0.950  1.000
  Li2  Li1+  0.528  0.578  0.550  1.000
  Li2  Li1+  0.728  0.978  0.550  1.000
  Li2  Li1+  0.928  0.978  0.550  1.000
  Li2  Li1+  0.328  0.578  0.550  1.000
  Li2  Li1+  0.128  0.378  0.150  1.000
  Li2  Li1+  0.128  0.378  0.750  1.000
  Li2  Li1+  0.528  0.178  0.550  1.000
  Li2  Li1+  0.928  0.978  0.750  1.000
  Li2  Li1+  0.328  0.978  0.550  1.000
  Li2  Li1+  0.128  0.578  0.950  1.000
  Li2  Li1+  0.728  0.978  0.750  1.000
  Li2  Li1+  0.528  0.978  0.150  1.000
  Li2  Li1+  0.928  0.978  0.950  1.000
  Li2  Li1+  0.728  0.378  0.350  1.000
  Li2  Li1+  0.128  0.378  0.550  1.000
  Li3  Li1+  0.622  0.675  0.350  1.000
  Li3  Li1+  0.022  0.675  0.950  1.000
  Li3  Li1+  0.222  0.475  0.150  1.000
  Li3  Li1+  0.822  0.275  0.350  1.000
  Li3  Li1+  0.622  0.275  0.150  1.000
  Li3  Li1+  0.022  0.075  0.950  1.000
  Li3  Li1+  0.422  0.475  0.350  1.000
  Li3  Li1+  0.222  0.675  0.350  1.000
  Li3  Li1+  0.422  0.875  0.550  1.000
  Li3  Li1+  0.822  0.275  0.550  1.000
  Li3  Li1+  0.622  0.675  0.550  1.000
  Li3  Li1+  0.222  0.275  0.350  1.000
  Li3  Li1+  0.422  0.675  0.350  1.000
  Li3  Li1+  0.022  0.275  0.350  1.000
  Li3  Li1+  0.622  0.275  0.350  1.000
  Li3  Li1+  0.022  0.875  0.550  1.000
  Li3  Li1+  0.822  0.275  0.750  1.000
  Li3  Li1+  0.422  0.275  0.150  1.000
  Li3  Li1+  0.022  0.275  0.750  1.000
  Li3  Li1+  0.622  0.675  0.750  1.000
  Li3  Li1+  0.022  0.675  0.350  1.000
  Li3  Li1+  0.422  0.875  0.750  1.000
  Li3  Li1+  0.822  0.275  0.950  1.000
  Li3  Li1+  0.222  0.075  0.750  1.000
  Li3  Li1+  0.022  0.275  0.950  1.000
  Li3  Li1+  0.222  0.475  0.350  1.000
  Li3  Li1+  0.222  0.675  0.550  1.000
  Li3  Li1+  0.622  0.275  0.550  1.000
  Li3  Li1+  0.622  0.675  0.950  1.000
  Li3  Li1+  0.822  0.475  0.150  1.000
  Li3  Li1+  0.022  0.475  0.550  1.000
  Li3  Li1+  0.422  0.675  0.550  1.000
  Li3  Li1+  0.422  0.075  0.750  1.000
  Li3  Li1+  0.422  0.475  0.550  1.000
  Li3  Li1+  0.422  0.875  0.950  1.000
  Li3  Li1+  0.622  0.275  0.750  1.000
  Li3  Li1+  0.822  0.475  0.350  1.000
  Li3  Li1+  0.622  0.875  0.150  1.000
  Li3  Li1+  0.422  0.275  0.750  1.000
  Li3  Li1+  0.022  0.475  0.950  1.000
  Li3  Li1+  0.022  0.275  0.550  1.000
  Li3  Li1+  0.222  0.075  0.350  1.000
  Li3  Li1+  0.822  0.475  0.550  1.000
  Li3  Li1+  0.222  0.675  0.750  1.000
  Li3  Li1+  0.622  0.875  0.350  1.000
  Li3  Li1+  0.222  0.275  0.550  1.000
  Li3  Li1+  0.422  0.075  0.150  1.000
  Li3  Li1+  0.422  0.675  0.750  1.000
  Li3  Li1+  0.822  0.475  0.750  1.000
  Li3  Li1+  0.222  0.475  0.550  1.000
  Li3  Li1+  0.622  0.275  0.950  1.000
  Li3  Li1+  0.622  0.075  0.150  1.000
  Li3  Li1+  0.022  0.475  0.350  1.000
  Li3  Li1+  0.822  0.475  0.950  1.000
  Li3  Li1+  0.622  0.875  0.550  1.000
  Li3  Li1+  0.022  0.875  0.950  1.000
  Li3  Li1+  0.022  0.075  0.750  1.000
  Li3  Li1+  0.222  0.675  0.950  1.000
  Li3  Li1+  0.222  0.875  0.950  1.000
  Li3  Li1+  0.622  0.475  0.150  1.000
  Li3  Li1+  0.822  0.675  0.150  1.000
  Li3  Li1+  0.222  0.075  0.950  1.000
  Li3  Li1+  0.622  0.875  0.750  1.000
  Li3  Li1+  0.022  0.475  0.150  1.000
  Li3  Li1+  0.422  0.475  0.750  1.000
  Li3  Li1+  0.622  0.075  0.350  1.000
  Li3  Li1+  0.022  0.675  0.550  1.000
  Li3  Li1+  0.022  0.075  0.550  1.000
  Li3  Li1+  0.822  0.675  0.350  1.000
  Li3  Li1+  0.622  0.475  0.350  1.000
  Li3  Li1+  0.222  0.275  0.750  1.000
  Li3  Li1+  0.622  0.875  0.950  1.000
  Li3  Li1+  0.222  0.475  0.750  1.000
  Li3  Li1+  0.422  0.075  0.550  1.000
  Li3  Li1+  0.422  0.675  0.950  1.000
  Li3  Li1+  0.822  0.675  0.550  1.000
  Li3  Li1+  0.422  0.275  0.950  1.000
  Li3  Li1+  0.222  0.875  0.150  1.000
  Li3  Li1+  0.422  0.275  0.350  1.000
  Li3  Li1+  0.822  0.075  0.150  1.000
  Li3  Li1+  0.622  0.475  0.550  1.000
  Li3  Li1+  0.822  0.675  0.750  1.000
  Li3  Li1+  0.422  0.075  0.350  1.000
  Li3  Li1+  0.422  0.075  0.950  1.000
  Li3  Li1+  0.622  0.075  0.550  1.000
  Li3  Li1+  0.822  0.075  0.350  1.000
  Li3  Li1+  0.022  0.875  0.150  1.000
  Li3  Li1+  0.422  0.875  0.150  1.000
  Li3  Li1+  0.822  0.675  0.950  1.000
  Li3  Li1+  0.422  0.475  0.950  1.000
  Li3  Li1+  0.622  0.475  0.750  1.000
  Li3  Li1+  0.222  0.475  0.950  1.000
  Li3  Li1+  0.222  0.875  0.350  1.000
  Li3  Li1+  0.422  0.475  0.150  1.000
  Li3  Li1+  0.822  0.875  0.150  1.000
  Li3  Li1+  0.822  0.075  0.550  1.000
  Li3  Li1+  0.022  0.875  0.750  1.000
  Li3  Li1+  0.622  0.075  0.750  1.000
  Li3  Li1+  0.222  0.275  0.950  1.000
  Li3  Li1+  0.022  0.675  0.150  1.000
  Li3  Li1+  0.822  0.875  0.350  1.000
  Li3  Li1+  0.022  0.475  0.750  1.000
  Li3  Li1+  0.222  0.075  0.550  1.000
  Li3  Li1+  0.822  0.075  0.750  1.000
  Li3  Li1+  0.622  0.475  0.950  1.000
  Li3  Li1+  0.822  0.875  0.550  1.000
  Li3  Li1+  0.222  0.275  0.150  1.000
  Li3  Li1+  0.022  0.075  0.150  1.000
  Li3  Li1+  0.022  0.075  0.350  1.000
  Li3  Li1+  0.222  0.875  0.550  1.000
  Li3  Li1+  0.022  0.675  0.750  1.000
  Li3  Li1+  0.422  0.275  0.550  1.000
  Li3  Li1+  0.822  0.075  0.950  1.000
  Li3  Li1+  0.822  0.875  0.750  1.000
  Li3  Li1+  0.422  0.875  0.350  1.000
  Li3  Li1+  0.222  0.675  0.150  1.000
  Li3  Li1+  0.622  0.075  0.950  1.000
  Li3  Li1+  0.622  0.675  0.150  1.000
  Li3  Li1+  0.422  0.675  0.150  1.000
  Li3  Li1+  0.222  0.875  0.750  1.000
  Li3  Li1+  0.822  0.875  0.950  1.000
  Li3  Li1+  0.822  0.275  0.150  1.000
  Li3  Li1+  0.022  0.275  0.150  1.000
  Li3  Li1+  0.222  0.075  0.150  1.000
  Li3  Li1+  0.022  0.875  0.350  1.000
  Li4  Li1+  0.022  0.872  0.444  1.000
  Li4  Li1+  0.022  0.872  0.044  1.000
  Li4  Li1+  0.222  0.672  0.444  1.000
  Li4  Li1+  0.622  0.072  0.844  1.000
  Li4  Li1+  0.622  0.872  0.444  1.000
  Li4  Li1+  0.422  0.672  0.644  1.000
  Li4  Li1+  0.222  0.072  0.644  1.000
  Li4  Li1+  0.822  0.472  0.044  1.000
  Li4  Li1+  0.422  0.872  0.644  1.000
  Li4  Li1+  0.222  0.872  0.844  1.000
  Li4  Li1+  0.022  0.072  0.444  1.000
  Li4  Li1+  0.622  0.472  0.644  1.000
  Li4  Li1+  0.022  0.072  0.644  1.000
  Li4  Li1+  0.622  0.872  0.644  1.000
  Li4  Li1+  0.422  0.072  0.844  1.000
  Li4  Li1+  0.822  0.472  0.244  1.000
  Li4  Li1+  0.622  0.272  0.044  1.000
  Li4  Li1+  0.022  0.472  0.644  1.000
  Li4  Li1+  0.022  0.472  0.044  1.000
  Li4  Li1+  0.222  0.272  0.844  1.000
  Li4  Li1+  0.422  0.472  0.844  1.000
  Li4  Li1+  0.022  0.272  0.444  1.000
  Li4  Li1+  0.222  0.672  0.644  1.000
  Li4  Li1+  0.822  0.472  0.444  1.000
  Li4  Li1+  0.222  0.472  0.644  1.000
  Li4  Li1+  0.622  0.872  0.844  1.000
  Li4  Li1+  0.422  0.872  0.844  1.000
  Li4  Li1+  0.622  0.472  0.844  1.000
  Li4  Li1+  0.222  0.272  0.244  1.000
  Li4  Li1+  0.422  0.272  0.644  1.000
  Li4  Li1+  0.822  0.472  0.644  1.000
  Li4  Li1+  0.422  0.472  0.244  1.000
  Li4  Li1+  0.622  0.272  0.244  1.000
  Li4  Li1+  0.822  0.072  0.044  1.000
  Li4  Li1+  0.422  0.672  0.844  1.000
  Li4  Li1+  0.422  0.072  0.044  1.000
  Li4  Li1+  0.822  0.472  0.844  1.000
  Li4  Li1+  0.422  0.272  0.244  1.000
  Li4  Li1+  0.022  0.272  0.044  1.000
  Li4  Li1+  0.622  0.672  0.044  1.000
  Li4  Li1+  0.822  0.072  0.244  1.000
  Li4  Li1+  0.222  0.672  0.844  1.000
  Li4  Li1+  0.022  0.472  0.244  1.000
  Li4  Li1+  0.022  0.072  0.244  1.000
  Li4  Li1+  0.022  0.472  0.444  1.000
  Li4  Li1+  0.822  0.672  0.044  1.000
  Li4  Li1+  0.622  0.072  0.044  1.000
  Li4  Li1+  0.422  0.672  0.044  1.000
  Li4  Li1+  0.222  0.472  0.844  1.000
  Li4  Li1+  0.622  0.272  0.444  1.000
  Li4  Li1+  0.622  0.672  0.244  1.000
  Li4  Li1+  0.022  0.672  0.444  1.000
  Li4  Li1+  0.822  0.072  0.444  1.000
  Li4  Li1+  0.022  0.272  0.844  1.000
  Li4  Li1+  0.422  0.072  0.644  1.000
  Li4  Li1+  0.822  0.672  0.244  1.000
  Li4  Li1+  0.222  0.472  0.044  1.000
  Li4  Li1+  0.022  0.672  0.044  1.000
  Li4  Li1+  0.422  0.872  0.044  1.000
  Li4  Li1+  0.222  0.072  0.044  1.000
  Li4  Li1+  0.222  0.072  0.844  1.000
  Li4  Li1+  0.022  0.272  0.644  1.000
  Li4  Li1+  0.822  0.072  0.644  1.000
  Li4  Li1+  0.822  0.672  0.444  1.000
  Li4  Li1+  0.622  0.272  0.644  1.000
  Li4  Li1+  0.622  0.672  0.444  1.000
  Li4  Li1+  0.222  0.872  0.044  1.000
  Li4  Li1+  0.022  0.872  0.244  1.000
  Li4  Li1+  0.222  0.072  0.444  1.000
  Li4  Li1+  0.622  0.072  0.244  1.000
  Li4  Li1+  0.222  0.272  0.444  1.000
  Li4  Li1+  0.822  0.672  0.644  1.000
  Li4  Li1+  0.822  0.072  0.844  1.000
  Li4  Li1+  0.422  0.472  0.444  1.000
  Li4  Li1+  0.422  0.272  0.844  1.000
  Li4  Li1+  0.222  0.672  0.044  1.000
  Li4  Li1+  0.422  0.672  0.244  1.000
  Li4  Li1+  0.022  0.072  0.044  1.000
  Li4  Li1+  0.622  0.672  0.644  1.000
  Li4  Li1+  0.822  0.672  0.844  1.000
  Li4  Li1+  0.422  0.072  0.244  1.000
  Li4  Li1+  0.622  0.272  0.844  1.000
  Li4  Li1+  0.822  0.272  0.044  1.000
  Li4  Li1+  0.422  0.072  0.444  1.000
  Li4  Li1+  0.222  0.872  0.244  1.000
  Li4  Li1+  0.422  0.872  0.244  1.000
  Li4  Li1+  0.222  0.472  0.244  1.000
  Li4  Li1+  0.822  0.872  0.044  1.000
  Li4  Li1+  0.422  0.272  0.444  1.000
  Li4  Li1+  0.622  0.072  0.444  1.000
  Li4  Li1+  0.622  0.672  0.844  1.000
  Li4  Li1+  0.022  0.872  0.844  1.000
  Li4  Li1+  0.822  0.272  0.244  1.000
  Li4  Li1+  0.422  0.272  0.044  1.000
  Li4  Li1+  0.822  0.872  0.244  1.000
  Li4  Li1+  0.622  0.472  0.044  1.000
  Li4  Li1+  0.422  0.672  0.444  1.000
  Li4  Li1+  0.222  0.872  0.644  1.000
  Li4  Li1+  0.022  0.272  0.244  1.000
  Li4  Li1+  0.222  0.672  0.244  1.000
  Li4  Li1+  0.822  0.872  0.444  1.000
  Li4  Li1+  0.022  0.872  0.644  1.000
  Li4  Li1+  0.022  0.072  0.844  1.000
  Li4  Li1+  0.822  0.272  0.444  1.000
  Li4  Li1+  0.022  0.672  0.644  1.000
  Li4  Li1+  0.222  0.872  0.444  1.000
  Li4  Li1+  0.622  0.872  0.044  1.000
  Li4  Li1+  0.622  0.072  0.644  1.000
  Li4  Li1+  0.222  0.272  0.644  1.000
  Li4  Li1+  0.022  0.472  0.844  1.000
  Li4  Li1+  0.622  0.472  0.244  1.000
  Li4  Li1+  0.822  0.872  0.644  1.000
  Li4  Li1+  0.422  0.472  0.644  1.000
  Li4  Li1+  0.422  0.472  0.044  1.000
  Li4  Li1+  0.822  0.272  0.644  1.000
  Li4  Li1+  0.622  0.872  0.244  1.000
  Li4  Li1+  0.222  0.272  0.044  1.000
  Li4  Li1+  0.422  0.872  0.444  1.000
  Li4  Li1+  0.022  0.672  0.844  1.000
  Li4  Li1+  0.822  0.872  0.844  1.000
  Li4  Li1+  0.022  0.672  0.244  1.000
  Li4  Li1+  0.222  0.472  0.444  1.000
  Li4  Li1+  0.222  0.072  0.244  1.000
  Li4  Li1+  0.822  0.272  0.844  1.000
  Li4  Li1+  0.622  0.472  0.444  1.000
  Li5  Li1+  0.128  0.378  0.656  1.000
  Li5  Li1+  0.528  0.378  0.056  1.000
  Li5  Li1+  0.128  0.578  0.656  1.000
  Li5  Li1+  0.728  0.778  0.456  1.000
  Li5  Li1+  0.928  0.178  0.256  1.000
  Li5  Li1+  0.328  0.578  0.056  1.000
  Li5  Li1+  0.128  0.178  0.256  1.000
  Li5  Li1+  0.928  0.578  0.456  1.000
  Li5  Li1+  0.128  0.978  0.456  1.000
  Li5  Li1+  0.728  0.578  0.056  1.000
  Li5  Li1+  0.128  0.578  0.456  1.000
  Li5  Li1+  0.128  0.778  0.256  1.000
  Li5  Li1+  0.128  0.578  0.256  1.000
  Li5  Li1+  0.528  0.778  0.256  1.000
  Li5  Li1+  0.328  0.178  0.056  1.000
  Li5  Li1+  0.328  0.778  0.656  1.000
  Li5  Li1+  0.928  0.578  0.656  1.000
  Li5  Li1+  0.928  0.178  0.456  1.000
  Li5  Li1+  0.728  0.778  0.656  1.000
  Li5  Li1+  0.328  0.178  0.656  1.000
  Li5  Li1+  0.728  0.178  0.856  1.000
  Li5  Li1+  0.328  0.378  0.056  1.000
  Li5  Li1+  0.528  0.978  0.856  1.000
  Li5  Li1+  0.528  0.178  0.856  1.000
  Li5  Li1+  0.328  0.578  0.856  1.000
  Li5  Li1+  0.928  0.578  0.856  1.000
  Li5  Li1+  0.728  0.578  0.256  1.000
  Li5  Li1+  0.928  0.178  0.656  1.000
  Li5  Li1+  0.528  0.578  0.656  1.000
  Li5  Li1+  0.528  0.178  0.656  1.000
  Li5  Li1+  0.528  0.978  0.056  1.000
  Li5  Li1+  0.728  0.778  0.856  1.000
  Li5  Li1+  0.128  0.978  0.056  1.000
  Li5  Li1+  0.728  0.378  0.056  1.000
  Li5  Li1+  0.528  0.178  0.456  1.000
  Li5  Li1+  0.928  0.778  0.056  1.000
  Li5  Li1+  0.528  0.378  0.456  1.000
  Li5  Li1+  0.128  0.978  0.656  1.000
  Li5  Li1+  0.328  0.378  0.656  1.000
  Li5  Li1+  0.928  0.178  0.856  1.000
  Li5  Li1+  0.728  0.578  0.456  1.000
  Li5  Li1+  0.328  0.578  0.256  1.000
  Li5  Li1+  0.328  0.778  0.856  1.000
  Li5  Li1+  0.528  0.778  0.456  1.000
  Li5  Li1+  0.728  0.978  0.056  1.000
  Li5  Li1+  0.928  0.778  0.256  1.000
  Li5  Li1+  0.128  0.978  0.856  1.000
  Li5  Li1+  0.728  0.178  0.056  1.000
  Li5  Li1+  0.528  0.578  0.256  1.000
  Li5  Li1+  0.528  0.378  0.856  1.000
  Li5  Li1+  0.928  0.378  0.056  1.000
  Li5  Li1+  0.328  0.778  0.056  1.000
  Li5  Li1+  0.128  0.178  0.056  1.000
  Li5  Li1+  0.128  0.778  0.056  1.000
  Li5  Li1+  0.528  0.578  0.856  1.000
  Li5  Li1+  0.728  0.378  0.256  1.000
  Li5  Li1+  0.928  0.778  0.456  1.000
  Li5  Li1+  0.528  0.978  0.256  1.000
  Li5  Li1+  0.728  0.578  0.656  1.000
  Li5  Li1+  0.728  0.978  0.256  1.000
  Li5  Li1+  0.128  0.778  0.856  1.000
  Li5  Li1+  0.928  0.378  0.256  1.000
  Li5  Li1+  0.528  0.178  0.056  1.000
  Li5  Li1+  0.128  0.178  0.656  1.000
  Li5  Li1+  0.128  0.378  0.256  1.000
  Li5  Li1+  0.328  0.178  0.456  1.000
  Li5  Li1+  0.928  0.778  0.656  1.000
  Li5  Li1+  0.328  0.978  0.056  1.000
  Li5  Li1+  0.728  0.178  0.256  1.000
  Li5  Li1+  0.128  0.978  0.256  1.000
  Li5  Li1+  0.328  0.378  0.256  1.000
  Li5  Li1+  0.728  0.578  0.856  1.000
  Li5  Li1+  0.728  0.978  0.456  1.000
  Li5  Li1+  0.128  0.778  0.656  1.000
  Li5  Li1+  0.128  0.778  0.456  1.000
  Li5  Li1+  0.928  0.778  0.856  1.000
  Li5  Li1+  0.928  0.378  0.456  1.000
  Li5  Li1+  0.728  0.378  0.456  1.000
  Li5  Li1+  0.328  0.578  0.456  1.000
  Li5  Li1+  0.528  0.378  0.256  1.000
  Li5  Li1+  0.128  0.578  0.056  1.000
  Li5  Li1+  0.528  0.778  0.656  1.000
  Li5  Li1+  0.328  0.178  0.856  1.000
  Li5  Li1+  0.328  0.778  0.256  1.000
  Li5  Li1+  0.928  0.978  0.056  1.000
  Li5  Li1+  0.528  0.178  0.256  1.000
  Li5  Li1+  0.328  0.378  0.856  1.000
  Li5  Li1+  0.928  0.378  0.656  1.000
  Li5  Li1+  0.728  0.178  0.456  1.000
  Li5  Li1+  0.728  0.978  0.656  1.000
  Li5  Li1+  0.128  0.178  0.856  1.000
  Li5  Li1+  0.328  0.978  0.256  1.000
  Li5  Li1+  0.728  0.778  0.056  1.000
  Li5  Li1+  0.928  0.978  0.256  1.000
  Li5  Li1+  0.528  0.978  0.456  1.000
  Li5  Li1+  0.328  0.978  0.656  1.000
  Li5  Li1+  0.528  0.578  0.456  1.000
  Li5  Li1+  0.728  0.378  0.656  1.000
  Li5  Li1+  0.328  0.978  0.856  1.000
  Li5  Li1+  0.928  0.378  0.856  1.000
  Li5  Li1+  0.528  0.778  0.056  1.000
  Li5  Li1+  0.128  0.578  0.856  1.000
  Li5  Li1+  0.728  0.978  0.856  1.000
  Li5  Li1+  0.128  0.378  0.856  1.000
  Li5  Li1+  0.928  0.978  0.456  1.000
  Li5  Li1+  0.128  0.378  0.456  1.000
  Li5  Li1+  0.328  0.178  0.256  1.000
  Li5  Li1+  0.128  0.378  0.056  1.000
  Li5  Li1+  0.728  0.778  0.256  1.000
  Li5  Li1+  0.928  0.578  0.056  1.000
  Li5  Li1+  0.528  0.578  0.056  1.000
  Li5  Li1+  0.528  0.978  0.656  1.000
  Li5  Li1+  0.328  0.778  0.456  1.000
  Li5  Li1+  0.328  0.578  0.656  1.000
  Li5  Li1+  0.928  0.978  0.656  1.000
  Li5  Li1+  0.128  0.178  0.456  1.000
  Li5  Li1+  0.928  0.178  0.056  1.000
  Li5  Li1+  0.328  0.978  0.456  1.000
  Li5  Li1+  0.728  0.378  0.856  1.000
  Li5  Li1+  0.528  0.778  0.856  1.000
  Li5  Li1+  0.728  0.178  0.656  1.000
  Li5  Li1+  0.928  0.578  0.256  1.000
  Li5  Li1+  0.328  0.378  0.456  1.000
  Li5  Li1+  0.928  0.978  0.856  1.000
  Li5  Li1+  0.528  0.378  0.656  1.000
  Li6  Li1+  0.622  0.578  0.950  1.000
  Li6  Li1+  0.622  0.978  0.350  1.000
  Li6  Li1+  0.622  0.378  0.750  1.000
  Li6  Li1+  0.822  0.578  0.950  1.000
  Li6  Li1+  0.222  0.778  0.150  1.000
  Li6  Li1+  0.622  0.178  0.750  1.000
  Li6  Li1+  0.022  0.578  0.750  1.000
  Li6  Li1+  0.022  0.978  0.350  1.000
  Li6  Li1+  0.022  0.978  0.550  1.000
  Li6  Li1+  0.222  0.578  0.550  1.000
  Li6  Li1+  0.222  0.778  0.950  1.000
  Li6  Li1+  0.422  0.978  0.150  1.000
  Li6  Li1+  0.222  0.378  0.150  1.000
  Li6  Li1+  0.822  0.378  0.150  1.000
  Li6  Li1+  0.422  0.378  0.350  1.000
  Li6  Li1+  0.822  0.778  0.150  1.000
  Li6  Li1+  0.222  0.378  0.550  1.000
  Li6  Li1+  0.422  0.178  0.150  1.000
  Li6  Li1+  0.422  0.978  0.950  1.000
  Li6  Li1+  0.622  0.978  0.550  1.000
  Li6  Li1+  0.622  0.778  0.150  1.000
  Li6  Li1+  0.422  0.578  0.950  1.000
  Li6  Li1+  0.422  0.778  0.550  1.000
  Li6  Li1+  0.422  0.178  0.750  1.000
  Li6  Li1+  0.622  0.378  0.950  1.000
  Li6  Li1+  0.022  0.778  0.550  1.000
  Li6  Li1+  0.222  0.178  0.550  1.000
  Li6  Li1+  0.822  0.378  0.350  1.000
  Li6  Li1+  0.822  0.778  0.350  1.000
  Li6  Li1+  0.622  0.178  0.950  1.000
  Li6  Li1+  0.022  0.378  0.950  1.000
  Li6  Li1+  0.022  0.178  0.750  1.000
  Li6  Li1+  0.422  0.378  0.150  1.000
  Li6  Li1+  0.622  0.978  0.750  1.000
  Li6  Li1+  0.622  0.778  0.350  1.000
  Li6  Li1+  0.022  0.178  0.150  1.000
  Li6  Li1+  0.422  0.178  0.950  1.000
  Li6  Li1+  0.222  0.778  0.350  1.000
  Li6  Li1+  0.422  0.578  0.550  1.000
  Li6  Li1+  0.822  0.778  0.550  1.000
  Li6  Li1+  0.222  0.578  0.150  1.000
  Li6  Li1+  0.822  0.378  0.550  1.000
  Li6  Li1+  0.622  0.178  0.150  1.000
  Li6  Li1+  0.222  0.978  0.150  1.000
  Li6  Li1+  0.022  0.178  0.550  1.000
  Li6  Li1+  0.022  0.378  0.150  1.000
  Li6  Li1+  0.622  0.578  0.150  1.000
  Li6  Li1+  0.422  0.978  0.350  1.000
  Li6  Li1+  0.422  0.578  0.150  1.000
  Li6  Li1+  0.622  0.978  0.950  1.000
  Li6  Li1+  0.822  0.778  0.750  1.000
  Li6  Li1+  0.222  0.178  0.350  1.000
  Li6  Li1+  0.022  0.578  0.350  1.000
  Li6  Li1+  0.822  0.378  0.750  1.000
  Li6  Li1+  0.222  0.578  0.750  1.000
  Li6  Li1+  0.622  0.378  0.150  1.000
  Li6  Li1+  0.022  0.378  0.350  1.000
  Li6  Li1+  0.622  0.778  0.550  1.000
  Li6  Li1+  0.422  0.378  0.750  1.000
  Li6  Li1+  0.022  0.778  0.950  1.000
  Li6  Li1+  0.422  0.778  0.750  1.000
  Li6  Li1+  0.022  0.978  0.750  1.000
  Li6  Li1+  0.822  0.778  0.950  1.000
  Li6  Li1+  0.622  0.578  0.350  1.000
  Li6  Li1+  0.822  0.178  0.150  1.000
  Li6  Li1+  0.222  0.178  0.950  1.000
  Li6  Li1+  0.822  0.378  0.950  1.000
  Li6  Li1+  0.422  0.778  0.150  1.000
  Li6  Li1+  0.222  0.378  0.750  1.000
  Li6  Li1+  0.022  0.778  0.350  1.000
  Li6  Li1+  0.022  0.978  0.150  1.000
  Li6  Li1+  0.222  0.978  0.350  1.000
  Li6  Li1+  0.222  0.378  0.350  1.000
  Li6  Li1+  0.022  0.378  0.750  1.000
  Li6  Li1+  0.822  0.978  0.150  1.000
  Li6  Li1+  0.222  0.778  0.550  1.000
  Li6  Li1+  0.022  0.978  0.950  1.000
  Li6  Li1+  0.622  0.778  0.750  1.000
  Li6  Li1+  0.622  0.378  0.350  1.000
  Li6  Li1+  0.822  0.178  0.350  1.000
  Li6  Li1+  0.622  0.178  0.350  1.000
  Li6  Li1+  0.822  0.578  0.150  1.000
  Li6  Li1+  0.622  0.578  0.550  1.000
  Li6  Li1+  0.822  0.978  0.350  1.000
  Li6  Li1+  0.222  0.178  0.150  1.000
  Li6  Li1+  0.022  0.578  0.150  1.000
  Li6  Li1+  0.422  0.978  0.550  1.000
  Li6  Li1+  0.222  0.978  0.950  1.000
  Li6  Li1+  0.222  0.578  0.350  1.000
  Li6  Li1+  0.222  0.578  0.950  1.000
  Li6  Li1+  0.222  0.978  0.750  1.000
  Li6  Li1+  0.422  0.378  0.550  1.000
  Li6  Li1+  0.822  0.978  0.550  1.000
  Li6  Li1+  0.622  0.778  0.950  1.000
  Li6  Li1+  0.822  0.578  0.350  1.000
  Li6  Li1+  0.822  0.178  0.550  1.000
  Li6  Li1+  0.022  0.378  0.550  1.000
  Li6  Li1+  0.422  0.778  0.950  1.000
  Li6  Li1+  0.022  0.178  0.950  1.000
  Li6  Li1+  0.222  0.978  0.550  1.000
  Li6  Li1+  0.622  0.178  0.550  1.000
  Li6  Li1+  0.622  0.578  0.750  1.000
  Li6  Li1+  0.022  0.778  0.150  1.000
  Li6  Li1+  0.622  0.378  0.550  1.000
  Li6  Li1+  0.022  0.778  0.750  1.000
  Li6  Li1+  0.422  0.578  0.750  1.000
  Li6  Li1+  0.822  0.578  0.550  1.000
  Li6  Li1+  0.822  0.978  0.750  1.000
  Li6  Li1+  0.022  0.178  0.350  1.000
  Li6  Li1+  0.022  0.578  0.550  1.000
  Li6  Li1+  0.222  0.778  0.750  1.000
  Li6  Li1+  0.622  0.978  0.150  1.000
  Li6  Li1+  0.822  0.178  0.750  1.000
  Li6  Li1+  0.422  0.178  0.550  1.000
  Li6  Li1+  0.422  0.778  0.350  1.000
  Li6  Li1+  0.422  0.978  0.750  1.000
  Li6  Li1+  0.222  0.378  0.950  1.000
  Li6  Li1+  0.822  0.578  0.750  1.000
  Li6  Li1+  0.422  0.578  0.350  1.000
  Li6  Li1+  0.822  0.978  0.950  1.000
  Li6  Li1+  0.022  0.578  0.950  1.000
  Li6  Li1+  0.422  0.178  0.350  1.000
  Li6  Li1+  0.222  0.178  0.750  1.000
  Li6  Li1+  0.422  0.378  0.950  1.000
  Li6  Li1+  0.822  0.178  0.950  1.000
  Li7  Li1+  0.128  0.072  0.550  1.000
  Li7  Li1+  0.928  0.272  0.350  1.000
  Li7  Li1+  0.328  0.472  0.150  1.000
  Li7  Li1+  0.528  0.672  0.150  1.000
  Li7  Li1+  0.528  0.472  0.750  1.000
  Li7  Li1+  0.328  0.072  0.750  1.000
  Li7  Li1+  0.928  0.672  0.150  1.000
  Li7  Li1+  0.528  0.472  0.350  1.000
  Li7  Li1+  0.328  0.272  0.750  1.000
  Li7  Li1+  0.728  0.872  0.950  1.000
  Li7  Li1+  0.128  0.472  0.950  1.000
  Li7  Li1+  0.328  0.272  0.350  1.000
  Li7  Li1+  0.728  0.472  0.550  1.000
  Li7  Li1+  0.528  0.872  0.950  1.000
  Li7  Li1+  0.728  0.272  0.550  1.000
  Li7  Li1+  0.928  0.272  0.550  1.000
  Li7  Li1+  0.328  0.672  0.950  1.000
  Li7  Li1+  0.728  0.672  0.750  1.000
  Li7  Li1+  0.328  0.872  0.750  1.000
  Li7  Li1+  0.528  0.672  0.750  1.000
  Li7  Li1+  0.928  0.672  0.350  1.000
  Li7  Li1+  0.528  0.072  0.550  1.000
  Li7  Li1+  0.128  0.272  0.150  1.000
  Li7  Li1+  0.728  0.072  0.750  1.000
  Li7  Li1+  0.328  0.472  0.750  1.000
  Li7  Li1+  0.528  0.872  0.350  1.000
  Li7  Li1+  0.928  0.072  0.150  1.000
  Li7  Li1+  0.528  0.272  0.750  1.000
  Li7  Li1+  0.328  0.672  0.350  1.000
  Li7  Li1+  0.128  0.272  0.950  1.000
  Li7  Li1+  0.528  0.072  0.350  1.000
  Li7  Li1+  0.928  0.272  0.750  1.000
  Li7  Li1+  0.128  0.272  0.750  1.000
  Li7  Li1+  0.728  0.472  0.750  1.000
  Li7  Li1+  0.928  0.672  0.550  1.000
  Li7  Li1+  0.528  0.072  0.750  1.000
  Li7  Li1+  0.128  0.872  0.950  1.000
  Li7  Li1+  0.728  0.672  0.950  1.000
  Li7  Li1+  0.528  0.672  0.350  1.000
  Li7  Li1+  0.328  0.072  0.550  1.000
  Li7  Li1+  0.728  0.272  0.750  1.000
  Li7  Li1+  0.928  0.072  0.350  1.000
  Li7  Li1+  0.128  0.472  0.350  1.000
  Li7  Li1+  0.328  0.872  0.950  1.000
  Li7  Li1+  0.728  0.072  0.150  1.000
  Li7  Li1+  0.128  0.272  0.350  1.000
  Li7  Li1+  0.728  0.072  0.950  1.000
  Li7  Li1+  0.928  0.672  0.750  1.000
  Li7  Li1+  0.928  0.272  0.950  1.000
  Li7  Li1+  0.328  0.872  0.150  1.000
  Li7  Li1+  0.328  0.072  0.150  1.000
  Li7  Li1+  0.328  0.272  0.150  1.000
  Li7  Li1+  0.728  0.472  0.950  1.000
  Li7  Li1+  0.328  0.472  0.350  1.000
  Li7  Li1+  0.128  0.072  0.950  1.000
  Li7  Li1+  0.528  0.072  0.950  1.000
  Li7  Li1+  0.728  0.872  0.150  1.000
  Li7  Li1+  0.128  0.472  0.150  1.000
  Li7  Li1+  0.928  0.072  0.550  1.000
  Li7  Li1+  0.928  0.672  0.950  1.000
  Li7  Li1+  0.328  0.072  0.350  1.000
  Li7  Li1+  0.928  0.472  0.150  1.000
  Li7  Li1+  0.728  0.272  0.950  1.000
  Li7  Li1+  0.528  0.472  0.150  1.000
  Li7  Li1+  0.528  0.872  0.550  1.000
  Li7  Li1+  0.128  0.072  0.350  1.000
  Li7  Li1+  0.528  0.672  0.950  1.000
  Li7  Li1+  0.128  0.672  0.550  1.000
  Li7  Li1+  0.328  0.272  0.950  1.000
  Li7  Li1+  0.328  0.672  0.550  1.000
  Li7  Li1+  0.528  0.272  0.550  1.000
  Li7  Li1+  0.328  0.472  0.950  1.000
  Li7  Li1+  0.928  0.872  0.150  1.000
  Li7  Li1+  0.528  0.472  0.950  1.000
  Li7  Li1+  0.328  0.272  0.550  1.000
  Li7  Li1+  0.928  0.472  0.350  1.000
  Li7  Li1+  0.928  0.072  0.750  1.000
  Li7  Li1+  0.728  0.672  0.150  1.000
  Li7  Li1+  0.728  0.872  0.350  1.000
  Li7  Li1+  0.728  0.272  0.150  1.000
  Li7  Li1+  0.128  0.872  0.350  1.000
  Li7  Li1+  0.128  0.072  0.150  1.000
  Li7  Li1+  0.328  0.872  0.350  1.000
  Li7  Li1+  0.528  0.472  0.550  1.000
  Li7  Li1+  0.928  0.872  0.350  1.000
  Li7  Li1+  0.728  0.072  0.350  1.000
  Li7  Li1+  0.728  0.472  0.150  1.000
  Li7  Li1+  0.128  0.872  0.550  1.000
  Li7  Li1+  0.128  0.872  0.150  1.000
  Li7  Li1+  0.528  0.272  0.350  1.000
  Li7  Li1+  0.928  0.472  0.550  1.000
  Li7  Li1+  0.528  0.672  0.550  1.000
  Li7  Li1+  0.728  0.872  0.550  1.000
  Li7  Li1+  0.928  0.072  0.950  1.000
  Li7  Li1+  0.128  0.672  0.750  1.000
  Li7  Li1+  0.528  0.272  0.150  1.000
  Li7  Li1+  0.528  0.272  0.950  1.000
  Li7  Li1+  0.728  0.672  0.350  1.000
  Li7  Li1+  0.928  0.872  0.550  1.000
  Li7  Li1+  0.128  0.672  0.350  1.000
  Li7  Li1+  0.328  0.072  0.950  1.000
  Li7  Li1+  0.528  0.872  0.750  1.000
  Li7  Li1+  0.328  0.672  0.750  1.000
  Li7  Li1+  0.328  0.472  0.550  1.000
  Li7  Li1+  0.928  0.472  0.750  1.000
  Li7  Li1+  0.128  0.472  0.550  1.000
  Li7  Li1+  0.128  0.672  0.950  1.000
  Li7  Li1+  0.728  0.272  0.350  1.000
  Li7  Li1+  0.928  0.272  0.150  1.000
  Li7  Li1+  0.728  0.072  0.550  1.000
  Li7  Li1+  0.328  0.672  0.150  1.000
  Li7  Li1+  0.928  0.872  0.750  1.000
  Li7  Li1+  0.728  0.472  0.350  1.000
  Li7  Li1+  0.528  0.872  0.150  1.000
  Li7  Li1+  0.728  0.872  0.750  1.000
  Li7  Li1+  0.528  0.072  0.150  1.000
  Li7  Li1+  0.928  0.472  0.950  1.000
  Li7  Li1+  0.128  0.272  0.550  1.000
  Li7  Li1+  0.328  0.872  0.550  1.000
  Li7  Li1+  0.128  0.072  0.750  1.000
  Li7  Li1+  0.128  0.672  0.150  1.000
  Li7  Li1+  0.128  0.472  0.750  1.000
  Li7  Li1+  0.128  0.872  0.750  1.000
  Li7  Li1+  0.928  0.872  0.950  1.000
  Li7  Li1+  0.728  0.672  0.550  1.000
  Li8  Li1+  0.472  0.622  0.250  1.000
  Li8  Li1+  0.272  0.222  0.250  1.000
  Li8  Li1+  0.472  0.422  0.850  1.000
  Li8  Li1+  0.872  0.622  0.250  1.000
  Li8  Li1+  0.072  0.422  0.650  1.000
  Li8  Li1+  0.072  0.222  0.650  1.000
  Li8  Li1+  0.672  0.822  0.250  1.000
  Li8  Li1+  0.472  0.222  0.650  1.000
  Li8  Li1+  0.072  0.822  0.450  1.000
  Li8  Li1+  0.872  0.022  0.450  1.000
  Li8  Li1+  0.672  0.022  0.650  1.000
  Li8  Li1+  0.072  0.022  0.650  1.000
  Li8  Li1+  0.272  0.422  0.850  1.000
  Li8  Li1+  0.872  0.222  0.850  1.000
  Li8  Li1+  0.672  0.422  0.250  1.000
  Li8  Li1+  0.672  0.622  0.250  1.000
  Li8  Li1+  0.472  0.222  0.450  1.000
  Li8  Li1+  0.872  0.622  0.450  1.000
  Li8  Li1+  0.472  0.222  0.250  1.000
  Li8  Li1+  0.472  0.622  0.850  1.000
  Li8  Li1+  0.072  0.222  0.050  1.000
  Li8  Li1+  0.672  0.222  0.450  1.000
  Li8  Li1+  0.472  0.422  0.250  1.000
  Li8  Li1+  0.272  0.222  0.650  1.000
  Li8  Li1+  0.072  0.622  0.850  1.000
  Li8  Li1+  0.672  0.822  0.450  1.000
  Li8  Li1+  0.272  0.422  0.450  1.000
  Li8  Li1+  0.872  0.022  0.650  1.000
  Li8  Li1+  0.872  0.422  0.050  1.000
  Li8  Li1+  0.272  0.822  0.050  1.000
  Li8  Li1+  0.072  0.622  0.450  1.000
  Li8  Li1+  0.872  0.622  0.650  1.000
  Li8  Li1+  0.272  0.622  0.450  1.000
  Li8  Li1+  0.072  0.022  0.850  1.000
  Li8  Li1+  0.672  0.022  0.050  1.000
  Li8  Li1+  0.072  0.222  0.450  1.000
  Li8  Li1+  0.472  0.022  0.850  1.000
  Li8  Li1+  0.472  0.822  0.450  1.000
  Li8  Li1+  0.072  0.422  0.850  1.000
  Li8  Li1+  0.672  0.422  0.450  1.000
  Li8  Li1+  0.272  0.422  0.050  1.000
  Li8  Li1+  0.672  0.622  0.450  1.000
  Li8  Li1+  0.072  0.822  0.250  1.000
  Li8  Li1+  0.472  0.622  0.450  1.000
  Li8  Li1+  0.872  0.022  0.850  1.000
  Li8  Li1+  0.072  0.622  0.250  1.000
  Li8  Li1+  0.872  0.622  0.850  1.000
  Li8  Li1+  0.872  0.422  0.250  1.000
  Li8  Li1+  0.272  0.222  0.050  1.000
  Li8  Li1+  0.272  0.822  0.650  1.000
  Li8  Li1+  0.672  0.022  0.850  1.000
  Li8  Li1+  0.472  0.022  0.050  1.000
  Li8  Li1+  0.672  0.822  0.650  1.000
  Li8  Li1+  0.672  0.222  0.650  1.000
  Li8  Li1+  0.072  0.622  0.050  1.000
  Li8  Li1+  0.472  0.422  0.650  1.000
  Li8  Li1+  0.472  0.622  0.050  1.000
  Li8  Li1+  0.472  0.022  0.250  1.000
  Li8  Li1+  0.472  0.822  0.050  1.000
  Li8  Li1+  0.072  0.822  0.850  1.000
  Li8  Li1+  0.272  0.622  0.050  1.000
  Li8  Li1+  0.872  0.422  0.450  1.000
  Li8  Li1+  0.872  0.822  0.050  1.000
  Li8  Li1+  0.672  0.422  0.650  1.000
  Li8  Li1+  0.872  0.222  0.050  1.000
  Li8  Li1+  0.472  0.422  0.050  1.000
  Li8  Li1+  0.272  0.822  0.250  1.000
  Li8  Li1+  0.072  0.822  0.050  1.000
  Li8  Li1+  0.672  0.622  0.650  1.000
  Li8  Li1+  0.272  0.622  0.650  1.000
  Li8  Li1+  0.672  0.022  0.250  1.000
  Li8  Li1+  0.472  0.022  0.650  1.000
  Li8  Li1+  0.472  0.222  0.050  1.000
  Li8  Li1+  0.272  0.022  0.850  1.000
  Li8  Li1+  0.872  0.822  0.250  1.000
  Li8  Li1+  0.672  0.822  0.850  1.000
  Li8  Li1+  0.072  0.222  0.850  1.000
  Li8  Li1+  0.472  0.822  0.650  1.000
  Li8  Li1+  0.872  0.422  0.650  1.000
  Li8  Li1+  0.072  0.222  0.250  1.000
  Li8  Li1+  0.672  0.222  0.850  1.000
  Li8  Li1+  0.272  0.222  0.450  1.000
  Li8  Li1+  0.672  0.222  0.050  1.000
  Li8  Li1+  0.072  0.422  0.450  1.000
  Li8  Li1+  0.872  0.222  0.250  1.000
  Li8  Li1+  0.272  0.822  0.850  1.000
  Li8  Li1+  0.272  0.422  0.650  1.000
  Li8  Li1+  0.872  0.822  0.450  1.000
  Li8  Li1+  0.072  0.022  0.050  1.000
  Li8  Li1+  0.472  0.622  0.650  1.000
  Li8  Li1+  0.072  0.022  0.450  1.000
  Li8  Li1+  0.672  0.622  0.850  1.000
  Li8  Li1+  0.672  0.422  0.850  1.000
  Li8  Li1+  0.872  0.422  0.850  1.000
  Li8  Li1+  0.072  0.422  0.050  1.000
  Li8  Li1+  0.272  0.222  0.850  1.000
  Li8  Li1+  0.872  0.022  0.050  1.000
  Li8  Li1+  0.472  0.222  0.850  1.000
  Li8  Li1+  0.272  0.422  0.250  1.000
  Li8  Li1+  0.272  0.022  0.650  1.000
  Li8  Li1+  0.472  0.022  0.450  1.000
  Li8  Li1+  0.472  0.422  0.450  1.000
  Li8  Li1+  0.872  0.222  0.450  1.000
  Li8  Li1+  0.872  0.822  0.650  1.000
  Li8  Li1+  0.272  0.822  0.450  1.000
  Li8  Li1+  0.672  0.022  0.450  1.000
  Li8  Li1+  0.072  0.422  0.250  1.000
  Li8  Li1+  0.072  0.822  0.650  1.000
  Li8  Li1+  0.672  0.422  0.050  1.000
  Li8  Li1+  0.272  0.622  0.250  1.000
  Li8  Li1+  0.872  0.622  0.050  1.000
  Li8  Li1+  0.272  0.022  0.050  1.000
  Li8  Li1+  0.272  0.622  0.850  1.000
  Li8  Li1+  0.672  0.822  0.050  1.000
  Li8  Li1+  0.472  0.822  0.250  1.000
  Li8  Li1+  0.272  0.022  0.450  1.000
  Li8  Li1+  0.872  0.022  0.250  1.000
  Li8  Li1+  0.672  0.222  0.250  1.000
  Li8  Li1+  0.872  0.822  0.850  1.000
  Li8  Li1+  0.672  0.622  0.050  1.000
  Li8  Li1+  0.472  0.822  0.850  1.000
  Li8  Li1+  0.872  0.222  0.650  1.000
  Li8  Li1+  0.272  0.022  0.250  1.000
  Li8  Li1+  0.072  0.622  0.650  1.000
  Li8  Li1+  0.072  0.022  0.250  1.000
  Li9  Li1+  0.575  0.328  0.450  1.000
  Li9  Li1+  0.375  0.528  0.450  1.000
  Li9  Li1+  0.375  0.128  0.650  1.000
  Li9  Li1+  0.375  0.128  0.450  1.000
  Li9  Li1+  0.175  0.928  0.250  1.000
  Li9  Li1+  0.575  0.528  0.450  1.000
  Li9  Li1+  0.775  0.928  0.650  1.000
  Li9  Li1+  0.775  0.728  0.650  1.000
  Li9  Li1+  0.575  0.128  0.650  1.000
  Li9  Li1+  0.975  0.528  0.050  1.000
  Li9  Li1+  0.975  0.728  0.450  1.000
  Li9  Li1+  0.575  0.128  0.050  1.000
  Li9  Li1+  0.775  0.328  0.250  1.000
  Li9  Li1+  0.375  0.328  0.450  1.000
  Li9  Li1+  0.975  0.128  0.850  1.000
  Li9  Li1+  0.575  0.928  0.450  1.000
  Li9  Li1+  0.575  0.128  0.450  1.000
  Li9  Li1+  0.175  0.928  0.850  1.000
  Li9  Li1+  0.775  0.528  0.850  1.000
  Li9  Li1+  0.175  0.328  0.050  1.000
  Li9  Li1+  0.175  0.528  0.650  1.000
  Li9  Li1+  0.375  0.728  0.450  1.000
  Li9  Li1+  0.775  0.128  0.650  1.000
  Li9  Li1+  0.775  0.528  0.050  1.000
  Li9  Li1+  0.375  0.928  0.650  1.000
  Li9  Li1+  0.575  0.528  0.850  1.000
  Li9  Li1+  0.975  0.528  0.250  1.000
  Li9  Li1+  0.775  0.128  0.050  1.000
  Li9  Li1+  0.775  0.928  0.850  1.000
  Li9  Li1+  0.975  0.728  0.650  1.000
  Li9  Li1+  0.775  0.728  0.850  1.000
  Li9  Li1+  0.175  0.328  0.450  1.000
  Li9  Li1+  0.575  0.928  0.050  1.000
  Li9  Li1+  0.175  0.328  0.650  1.000
  Li9  Li1+  0.975  0.328  0.050  1.000
  Li9  Li1+  0.575  0.528  0.250  1.000
  Li9  Li1+  0.375  0.928  0.050  1.000
  Li9  Li1+  0.575  0.128  0.850  1.000
  Li9  Li1+  0.575  0.728  0.650  1.000
  Li9  Li1+  0.575  0.728  0.250  1.000
  Li9  Li1+  0.375  0.928  0.850  1.000
  Li9  Li1+  0.375  0.328  0.850  1.000
  Li9  Li1+  0.975  0.528  0.450  1.000
  Li9  Li1+  0.775  0.328  0.450  1.000
  Li9  Li1+  0.975  0.728  0.850  1.000
  Li9  Li1+  0.775  0.728  0.050  1.000
  Li9  Li1+  0.375  0.728  0.050  1.000
  Li9  Li1+  0.175  0.128  0.850  1.000
  Li9  Li1+  0.175  0.328  0.850  1.000
  Li9  Li1+  0.375  0.328  0.250  1.000
  Li9  Li1+  0.175  0.528  0.850  1.000
  Li9  Li1+  0.975  0.128  0.050  1.000
  Li9  Li1+  0.775  0.528  0.250  1.000
  Li9  Li1+  0.775  0.928  0.050  1.000
  Li9  Li1+  0.975  0.328  0.250  1.000
  Li9  Li1+  0.575  0.928  0.650  1.000
  Li9  Li1+  0.375  0.528  0.250  1.000
  Li9  Li1+  0.175  0.928  0.450  1.000
  Li9  Li1+  0.975  0.928  0.050  1.000
  Li9  Li1+  0.575  0.528  0.050  1.000
  Li9  Li1+  0.375  0.528  0.650  1.000
  Li9  Li1+  0.975  0.528  0.650  1.000
  Li9  Li1+  0.175  0.728  0.850  1.000
  Li9  Li1+  0.775  0.128  0.250  1.000
  Li9  Li1+  0.775  0.128  0.850  1.000
  Li9  Li1+  0.175  0.728  0.450  1.000
  Li9  Li1+  0.175  0.128  0.450  1.000
  Li9  Li1+  0.575  0.528  0.650  1.000
  Li9  Li1+  0.175  0.528  0.050  1.000
  Li9  Li1+  0.375  0.728  0.650  1.000
  Li9  Li1+  0.175  0.528  0.450  1.000
  Li9  Li1+  0.175  0.328  0.250  1.000
  Li9  Li1+  0.175  0.928  0.650  1.000
  Li9  Li1+  0.175  0.728  0.250  1.000
  Li9  Li1+  0.975  0.928  0.250  1.000
  Li9  Li1+  0.175  0.728  0.050  1.000
  Li9  Li1+  0.375  0.928  0.250  1.000
  Li9  Li1+  0.975  0.328  0.450  1.000
  Li9  Li1+  0.975  0.128  0.250  1.000
  Li9  Li1+  0.375  0.128  0.050  1.000
  Li9  Li1+  0.775  0.728  0.250  1.000
  Li9  Li1+  0.575  0.328  0.050  1.000
  Li9  Li1+  0.575  0.328  0.850  1.000
  Li9  Li1+  0.975  0.528  0.850  1.000
  Li9  Li1+  0.775  0.928  0.250  1.000
  Li9  Li1+  0.375  0.328  0.050  1.000
  Li9  Li1+  0.775  0.328  0.650  1.000
  Li9  Li1+  0.175  0.128  0.250  1.000
  Li9  Li1+  0.775  0.528  0.450  1.000
  Li9  Li1+  0.575  0.928  0.250  1.000
  Li9  Li1+  0.175  0.128  0.650  1.000
  Li9  Li1+  0.175  0.528  0.250  1.000
  Li9  Li1+  0.975  0.928  0.450  1.000
  Li9  Li1+  0.175  0.928  0.050  1.000
  Li9  Li1+  0.575  0.128  0.250  1.000
  Li9  Li1+  0.375  0.328  0.650  1.000
  Li9  Li1+  0.975  0.328  0.650  1.000
  Li9  Li1+  0.975  0.128  0.450  1.000
  Li9  Li1+  0.375  0.728  0.250  1.000
  Li9  Li1+  0.575  0.728  0.850  1.000
  Li9  Li1+  0.975  0.728  0.050  1.000
  Li9  Li1+  0.375  0.128  0.850  1.000
  Li9  Li1+  0.775  0.328  0.050  1.000
  Li9  Li1+  0.575  0.328  0.250  1.000
  Li9  Li1+  0.775  0.128  0.450  1.000
  Li9  Li1+  0.775  0.928  0.450  1.000
  Li9  Li1+  0.175  0.128  0.050  1.000
  Li9  Li1+  0.775  0.728  0.450  1.000
  Li9  Li1+  0.975  0.928  0.650  1.000
  Li9  Li1+  0.575  0.928  0.850  1.000
  Li9  Li1+  0.375  0.128  0.250  1.000
  Li9  Li1+  0.575  0.728  0.050  1.000
  Li9  Li1+  0.575  0.728  0.450  1.000
  Li9  Li1+  0.775  0.328  0.850  1.000
  Li9  Li1+  0.375  0.528  0.850  1.000
  Li9  Li1+  0.775  0.528  0.650  1.000
  Li9  Li1+  0.375  0.728  0.850  1.000
  Li9  Li1+  0.975  0.328  0.850  1.000
  Li9  Li1+  0.375  0.928  0.450  1.000
  Li9  Li1+  0.975  0.728  0.250  1.000
  Li9  Li1+  0.975  0.128  0.650  1.000
  Li9  Li1+  0.175  0.728  0.650  1.000
  Li9  Li1+  0.375  0.528  0.050  1.000
  Li9  Li1+  0.975  0.928  0.850  1.000
  Li9  Li1+  0.575  0.328  0.650  1.000
  Li10  Li1+  0.978  0.328  0.156  1.000
  Li10  Li1+  0.778  0.928  0.156  1.000
  Li10  Li1+  0.778  0.328  0.156  1.000
  Li10  Li1+  0.378  0.928  0.956  1.000
  Li10  Li1+  0.978  0.528  0.356  1.000
  Li10  Li1+  0.578  0.328  0.956  1.000
  Li10  Li1+  0.578  0.728  0.356  1.000
  Li10  Li1+  0.578  0.928  0.556  1.000
  Li10  Li1+  0.978  0.128  0.156  1.000
  Li10  Li1+  0.378  0.728  0.156  1.000
  Li10  Li1+  0.378  0.528  0.756  1.000
  Li10  Li1+  0.778  0.528  0.556  1.000
  Li10  Li1+  0.778  0.728  0.356  1.000
  Li10  Li1+  0.378  0.328  0.756  1.000
  Li10  Li1+  0.578  0.328  0.556  1.000
  Li10  Li1+  0.578  0.928  0.156  1.000
  Li10  Li1+  0.978  0.728  0.756  1.000
  Li10  Li1+  0.578  0.728  0.756  1.000
  Li10  Li1+  0.578  0.328  0.756  1.000
  Li10  Li1+  0.578  0.528  0.756  1.000
  Li10  Li1+  0.978  0.528  0.556  1.000
  Li10  Li1+  0.578  0.128  0.356  1.000
  Li10  Li1+  0.978  0.328  0.356  1.000
  Li10  Li1+  0.378  0.928  0.156  1.000
  Li10  Li1+  0.178  0.128  0.556  1.000
  Li10  Li1+  0.178  0.328  0.356  1.000
  Li10  Li1+  0.578  0.128  0.956  1.000
  Li10  Li1+  0.778  0.928  0.356  1.000
  Li10  Li1+  0.778  0.328  0.956  1.000
  Li10  Li1+  0.178  0.128  0.956  1.000
  Li10  Li1+  0.778  0.128  0.156  1.000
  Li10  Li1+  0.178  0.728  0.956  1.000
  Li10  Li1+  0.178  0.728  0.156  1.000
  Li10  Li1+  0.978  0.128  0.356  1.000
  Li10  Li1+  0.978  0.728  0.956  1.000
  Li10  Li1+  0.178  0.528  0.156  1.000
  Li10  Li1+  0.778  0.128  0.756  1.000
  Li10  Li1+  0.178  0.728  0.356  1.000
  Li10  Li1+  0.778  0.328  0.356  1.000
  Li10  Li1+  0.378  0.128  0.156  1.000
  Li10  Li1+  0.778  0.728  0.556  1.000
  Li10  Li1+  0.778  0.528  0.756  1.000
  Li10  Li1+  0.978  0.528  0.756  1.000
  Li10  Li1+  0.378  0.728  0.756  1.000
  Li10  Li1+  0.178  0.928  0.156  1.000
  Li10  Li1+  0.978  0.328  0.556  1.000
  Li10  Li1+  0.178  0.328  0.556  1.000
  Li10  Li1+  0.178  0.728  0.556  1.000
  Li10  Li1+  0.378  0.328  0.556  1.000
  Li10  Li1+  0.178  0.728  0.756  1.000
  Li10  Li1+  0.578  0.128  0.756  1.000
  Li10  Li1+  0.978  0.928  0.156  1.000
  Li10  Li1+  0.578  0.928  0.756  1.000
  Li10  Li1+  0.778  0.928  0.556  1.000
  Li10  Li1+  0.378  0.528  0.156  1.000
  Li10  Li1+  0.578  0.528  0.556  1.000
  Li10  Li1+  0.178  0.528  0.756  1.000
  Li10  Li1+  0.978  0.128  0.556  1.000
  Li10  Li1+  0.178  0.328  0.156  1.000
  Li10  Li1+  0.578  0.728  0.156  1.000
  Li10  Li1+  0.578  0.328  0.156  1.000
  Li10  Li1+  0.178  0.928  0.556  1.000
  Li10  Li1+  0.178  0.128  0.356  1.000
  Li10  Li1+  0.978  0.528  0.956  1.000
  Li10  Li1+  0.378  0.728  0.356  1.000
  Li10  Li1+  0.778  0.528  0.156  1.000
  Li10  Li1+  0.378  0.928  0.356  1.000
  Li10  Li1+  0.378  0.128  0.356  1.000
  Li10  Li1+  0.978  0.328  0.756  1.000
  Li10  Li1+  0.978  0.928  0.356  1.000
  Li10  Li1+  0.578  0.928  0.356  1.000
  Li10  Li1+  0.378  0.528  0.556  1.000
  Li10  Li1+  0.778  0.728  0.756  1.000
  Li10  Li1+  0.178  0.928  0.356  1.000
  Li10  Li1+  0.778  0.528  0.956  1.000
  Li10  Li1+  0.378  0.528  0.956  1.000
  Li10  Li1+  0.778  0.128  0.356  1.000
  Li10  Li1+  0.378  0.328  0.356  1.000
  Li10  Li1+  0.178  0.528  0.356  1.000
  Li10  Li1+  0.978  0.128  0.756  1.000
  Li10  Li1+  0.578  0.728  0.556  1.000
  Li10  Li1+  0.778  0.328  0.556  1.000
  Li10  Li1+  0.978  0.728  0.156  1.000
  Li10  Li1+  0.778  0.928  0.756  1.000
  Li10  Li1+  0.578  0.728  0.956  1.000
  Li10  Li1+  0.178  0.928  0.956  1.000
  Li10  Li1+  0.778  0.128  0.956  1.000
  Li10  Li1+  0.978  0.928  0.556  1.000
  Li10  Li1+  0.578  0.128  0.156  1.000
  Li10  Li1+  0.978  0.328  0.956  1.000
  Li10  Li1+  0.178  0.328  0.756  1.000
  Li10  Li1+  0.578  0.528  0.356  1.000
  Li10  Li1+  0.178  0.928  0.756  1.000
  Li10  Li1+  0.378  0.328  0.956  1.000
  Li10  Li1+  0.578  0.528  0.956  1.000
  Li10  Li1+  0.178  0.128  0.156  1.000
  Li10  Li1+  0.778  0.728  0.956  1.000
  Li10  Li1+  0.378  0.728  0.956  1.000
  Li10  Li1+  0.778  0.528  0.356  1.000
  Li10  Li1+  0.178  0.528  0.556  1.000
  Li10  Li1+  0.578  0.128  0.556  1.000
  Li10  Li1+  0.978  0.128  0.956  1.000
  Li10  Li1+  0.978  0.728  0.356  1.000
  Li10  Li1+  0.778  0.728  0.156  1.000
  Li10  Li1+  0.378  0.328  0.156  1.000
  Li10  Li1+  0.978  0.928  0.756  1.000
  Li10  Li1+  0.778  0.928  0.956  1.000
  Li10  Li1+  0.978  0.528  0.156  1.000
  Li10  Li1+  0.378  0.128  0.556  1.000
  Li10  Li1+  0.578  0.928  0.956  1.000
  Li10  Li1+  0.378  0.128  0.956  1.000
  Li10  Li1+  0.378  0.128  0.756  1.000
  Li10  Li1+  0.578  0.528  0.156  1.000
  Li10  Li1+  0.578  0.328  0.356  1.000
  Li10  Li1+  0.378  0.928  0.556  1.000
  Li10  Li1+  0.778  0.128  0.556  1.000
  Li10  Li1+  0.778  0.328  0.756  1.000
  Li10  Li1+  0.178  0.328  0.956  1.000
  Li10  Li1+  0.378  0.528  0.356  1.000
  Li10  Li1+  0.378  0.728  0.556  1.000
  Li10  Li1+  0.178  0.528  0.956  1.000
  Li10  Li1+  0.978  0.728  0.556  1.000
  Li10  Li1+  0.978  0.928  0.956  1.000
  Li10  Li1+  0.178  0.128  0.756  1.000
  Li10  Li1+  0.378  0.928  0.756  1.000
  Li11  Li1+  0.272  0.622  0.744  1.000
  Li11  Li1+  0.872  0.022  0.544  1.000
  Li11  Li1+  0.272  0.422  0.944  1.000
  Li11  Li1+  0.472  0.622  0.544  1.000
  Li11  Li1+  0.072  0.022  0.144  1.000
  Li11  Li1+  0.872  0.222  0.544  1.000
  Li11  Li1+  0.272  0.222  0.744  1.000
  Li11  Li1+  0.672  0.022  0.144  1.000
  Li11  Li1+  0.072  0.422  0.744  1.000
  Li11  Li1+  0.272  0.622  0.344  1.000
  Li11  Li1+  0.472  0.422  0.944  1.000
  Li11  Li1+  0.072  0.822  0.744  1.000
  Li11  Li1+  0.672  0.622  0.144  1.000
  Li11  Li1+  0.272  0.022  0.144  1.000
  Li11  Li1+  0.872  0.422  0.744  1.000
  Li11  Li1+  0.672  0.822  0.744  1.000
  Li11  Li1+  0.872  0.622  0.944  1.000
  Li11  Li1+  0.072  0.422  0.544  1.000
  Li11  Li1+  0.072  0.222  0.144  1.000
  Li11  Li1+  0.272  0.022  0.544  1.000
  Li11  Li1+  0.672  0.622  0.944  1.000
  Li11  Li1+  0.472  0.622  0.944  1.000
  Li11  Li1+  0.472  0.822  0.344  1.000
  Li11  Li1+  0.472  0.822  0.744  1.000
  Li11  Li1+  0.672  0.022  0.744  1.000
  Li11  Li1+  0.272  0.422  0.344  1.000
  Li11  Li1+  0.872  0.022  0.744  1.000
  Li11  Li1+  0.872  0.222  0.744  1.000
  Li11  Li1+  0.072  0.022  0.744  1.000
  Li11  Li1+  0.472  0.022  0.144  1.000
  Li11  Li1+  0.672  0.422  0.544  1.000
  Li11  Li1+  0.472  0.022  0.544  1.000
  Li11  Li1+  0.072  0.622  0.144  1.000
  Li11  Li1+  0.472  0.222  0.344  1.000
  Li11  Li1+  0.272  0.222  0.544  1.000
  Li11  Li1+  0.872  0.422  0.944  1.000
  Li11  Li1+  0.872  0.822  0.144  1.000
  Li11  Li1+  0.272  0.022  0.744  1.000
  Li11  Li1+  0.672  0.222  0.944  1.000
  Li11  Li1+  0.072  0.222  0.744  1.000
  Li11  Li1+  0.272  0.822  0.344  1.000
  Li11  Li1+  0.672  0.222  0.344  1.000
  Li11  Li1+  0.672  0.822  0.944  1.000
  Li11  Li1+  0.072  0.622  0.944  1.000
  Li11  Li1+  0.672  0.622  0.344  1.000
  Li11  Li1+  0.272  0.822  0.944  1.000
  Li11  Li1+  0.672  0.822  0.144  1.000
  Li11  Li1+  0.472  0.422  0.744  1.000
  Li11  Li1+  0.872  0.022  0.944  1.000
  Li11  Li1+  0.272  0.422  0.744  1.000
  Li11  Li1+  0.872  0.222  0.944  1.000
  Li11  Li1+  0.472  0.622  0.344  1.000
  Li11  Li1+  0.272  0.222  0.344  1.000
  Li11  Li1+  0.272  0.222  0.144  1.000
  Li11  Li1+  0.872  0.822  0.344  1.000
  Li11  Li1+  0.072  0.822  0.944  1.000
  Li11  Li1+  0.672  0.022  0.344  1.000
  Li11  Li1+  0.072  0.022  0.544  1.000
  Li11  Li1+  0.872  0.622  0.144  1.000
  Li11  Li1+  0.272  0.622  0.944  1.000
  Li11  Li1+  0.272  0.022  0.944  1.000
  Li11  Li1+  0.072  0.422  0.144  1.000
  Li11  Li1+  0.072  0.222  0.544  1.000
  Li11  Li1+  0.272  0.422  0.144  1.000
  Li11  Li1+  0.272  0.622  0.144  1.000
  Li11  Li1+  0.072  0.822  0.144  1.000
  Li11  Li1+  0.672  0.422  0.744  1.000
  Li11  Li1+  0.072  0.222  0.944  1.000
  Li11  Li1+  0.472  0.222  0.544  1.000
  Li11  Li1+  0.272  0.622  0.544  1.000
  Li11  Li1+  0.872  0.022  0.144  1.000
  Li11  Li1+  0.872  0.422  0.144  1.000
  Li11  Li1+  0.672  0.022  0.944  1.000
  Li11  Li1+  0.472  0.622  0.744  1.000
  Li11  Li1+  0.872  0.822  0.544  1.000
  Li11  Li1+  0.472  0.822  0.944  1.000
  Li11  Li1+  0.872  0.222  0.144  1.000
  Li11  Li1+  0.672  0.422  0.144  1.000
  Li11  Li1+  0.072  0.622  0.344  1.000
  Li11  Li1+  0.872  0.622  0.344  1.000
  Li11  Li1+  0.672  0.822  0.344  1.000
  Li11  Li1+  0.672  0.622  0.544  1.000
  Li11  Li1+  0.072  0.822  0.544  1.000
  Li11  Li1+  0.072  0.422  0.344  1.000
  Li11  Li1+  0.672  0.222  0.544  1.000
  Li11  Li1+  0.472  0.422  0.544  1.000
  Li11  Li1+  0.472  0.222  0.144  1.000
  Li11  Li1+  0.472  0.822  0.144  1.000
  Li11  Li1+  0.472  0.822  0.544  1.000
  Li11  Li1+  0.472  0.222  0.744  1.000
  Li11  Li1+  0.072  0.022  0.944  1.000
  Li11  Li1+  0.272  0.822  0.544  1.000
  Li11  Li1+  0.272  0.022  0.344  1.000
  Li11  Li1+  0.872  0.822  0.744  1.000
  Li11  Li1+  0.072  0.022  0.344  1.000
  Li11  Li1+  0.872  0.422  0.344  1.000
  Li11  Li1+  0.672  0.022  0.544  1.000
  Li11  Li1+  0.472  0.622  0.144  1.000
  Li11  Li1+  0.872  0.022  0.344  1.000
  Li11  Li1+  0.672  0.422  0.944  1.000
  Li11  Li1+  0.872  0.622  0.544  1.000
  Li11  Li1+  0.872  0.222  0.344  1.000
  Li11  Li1+  0.272  0.222  0.944  1.000
  Li11  Li1+  0.272  0.422  0.544  1.000
  Li11  Li1+  0.072  0.622  0.744  1.000
  Li11  Li1+  0.472  0.422  0.344  1.000
  Li11  Li1+  0.072  0.622  0.544  1.000
  Li11  Li1+  0.672  0.822  0.544  1.000
  Li11  Li1+  0.072  0.422  0.944  1.000
  Li11  Li1+  0.472  0.022  0.744  1.000
  Li11  Li1+  0.472  0.422  0.144  1.000
  Li11  Li1+  0.272  0.822  0.144  1.000
  Li11  Li1+  0.472  0.222  0.944  1.000
  Li11  Li1+  0.872  0.822  0.944  1.000
  Li11  Li1+  0.672  0.622  0.744  1.000
  Li11  Li1+  0.472  0.022  0.944  1.000
  Li11  Li1+  0.672  0.222  0.144  1.000
  Li11  Li1+  0.672  0.422  0.344  1.000
  Li11  Li1+  0.272  0.822  0.744  1.000
  Li11  Li1+  0.872  0.422  0.544  1.000
  Li11  Li1+  0.072  0.222  0.344  1.000
  Li11  Li1+  0.872  0.622  0.744  1.000
  Li11  Li1+  0.472  0.022  0.344  1.000
  Li11  Li1+  0.072  0.822  0.344  1.000
  Li11  Li1+  0.672  0.222  0.744  1.000
  Li12  Li1+  0.778  0.222  0.450  1.000
  Li12  Li1+  0.778  0.822  0.050  1.000
  Li12  Li1+  0.178  0.622  0.250  1.000
  Li12  Li1+  0.778  0.822  0.850  1.000
  Li12  Li1+  0.978  0.422  0.650  1.000
  Li12  Li1+  0.378  0.822  0.050  1.000
  Li12  Li1+  0.378  0.622  0.250  1.000
  Li12  Li1+  0.378  0.022  0.250  1.000
  Li12  Li1+  0.978  0.222  0.650  1.000
  Li12  Li1+  0.378  0.622  0.650  1.000
  Li12  Li1+  0.778  0.422  0.650  1.000
  Li12  Li1+  0.378  0.222  0.050  1.000
  Li12  Li1+  0.178  0.222  0.650  1.000
  Li12  Li1+  0.778  0.422  0.050  1.000
  Li12  Li1+  0.578  0.622  0.850  1.000
  Li12  Li1+  0.578  0.422  0.450  1.000
  Li12  Li1+  0.178  0.422  0.050  1.000
  Li12  Li1+  0.978  0.622  0.850  1.000
  Li12  Li1+  0.178  0.222  0.450  1.000
  Li12  Li1+  0.578  0.422  0.050  1.000
  Li12  Li1+  0.778  0.022  0.050  1.000
  Li12  Li1+  0.578  0.822  0.250  1.000
  Li12  Li1+  0.578  0.422  0.250  1.000
  Li12  Li1+  0.178  0.422  0.850  1.000
  Li12  Li1+  0.978  0.022  0.850  1.000
  Li12  Li1+  0.778  0.622  0.450  1.000
  Li12  Li1+  0.578  0.822  0.650  1.000
  Li12  Li1+  0.578  0.622  0.250  1.000
  Li12  Li1+  0.978  0.422  0.850  1.000
  Li12  Li1+  0.778  0.222  0.050  1.000
  Li12  Li1+  0.178  0.222  0.250  1.000
  Li12  Li1+  0.578  0.222  0.850  1.000
  Li12  Li1+  0.778  0.822  0.250  1.000
  Li12  Li1+  0.978  0.222  0.850  1.000
  Li12  Li1+  0.578  0.022  0.850  1.000
  Li12  Li1+  0.178  0.822  0.050  1.000
  Li12  Li1+  0.978  0.022  0.050  1.000
  Li12  Li1+  0.178  0.822  0.650  1.000
  Li12  Li1+  0.978  0.822  0.050  1.000
  Li12  Li1+  0.178  0.622  0.450  1.000
  Li12  Li1+  0.778  0.422  0.850  1.000
  Li12  Li1+  0.178  0.822  0.250  1.000
  Li12  Li1+  0.378  0.422  0.650  1.000
  Li12  Li1+  0.378  0.422  0.050  1.000
  Li12  Li1+  0.578  0.022  0.650  1.000
  Li12  Li1+  0.178  0.022  0.050  1.000
  Li12  Li1+  0.778  0.222  0.650  1.000
  Li12  Li1+  0.578  0.222  0.250  1.000
  Li12  Li1+  0.778  0.422  0.250  1.000
  Li12  Li1+  0.578  0.622  0.050  1.000
  Li12  Li1+  0.978  0.222  0.050  1.000
  Li12  Li1+  0.978  0.622  0.050  1.000
  Li12  Li1+  0.778  0.022  0.650  1.000
  Li12  Li1+  0.178  0.422  0.650  1.000
  Li12  Li1+  0.578  0.622  0.650  1.000
  Li12  Li1+  0.978  0.422  0.050  1.000
  Li12  Li1+  0.178  0.822  0.850  1.000
  Li12  Li1+  0.378  0.022  0.050  1.000
  Li12  Li1+  0.378  0.822  0.250  1.000
  Li12  Li1+  0.378  0.022  0.450  1.000
  Li12  Li1+  0.978  0.822  0.250  1.000
  Li12  Li1+  0.778  0.622  0.650  1.000
  Li12  Li1+  0.378  0.822  0.650  1.000
  Li12  Li1+  0.178  0.422  0.450  1.000
  Li12  Li1+  0.378  0.622  0.050  1.000
  Li12  Li1+  0.778  0.822  0.450  1.000
  Li12  Li1+  0.978  0.022  0.250  1.000
  Li12  Li1+  0.378  0.822  0.850  1.000
  Li12  Li1+  0.778  0.022  0.250  1.000
  Li12  Li1+  0.378  0.622  0.850  1.000
  Li12  Li1+  0.378  0.222  0.850  1.000
  Li12  Li1+  0.178  0.622  0.650  1.000
  Li12  Li1+  0.378  0.622  0.450  1.000
  Li12  Li1+  0.578  0.822  0.050  1.000
  Li12  Li1+  0.578  0.022  0.050  1.000
  Li12  Li1+  0.978  0.622  0.250  1.000
  Li12  Li1+  0.778  0.222  0.250  1.000
  Li12  Li1+  0.578  0.222  0.450  1.000
  Li12  Li1+  0.778  0.622  0.050  1.000
  Li12  Li1+  0.978  0.222  0.250  1.000
  Li12  Li1+  0.978  0.822  0.450  1.000
  Li12  Li1+  0.178  0.022  0.250  1.000
  Li12  Li1+  0.978  0.422  0.250  1.000
  Li12  Li1+  0.578  0.822  0.850  1.000
  Li12  Li1+  0.578  0.422  0.850  1.000
  Li12  Li1+  0.178  0.022  0.650  1.000
  Li12  Li1+  0.378  0.422  0.450  1.000
  Li12  Li1+  0.578  0.822  0.450  1.000
  Li12  Li1+  0.778  0.222  0.850  1.000
  Li12  Li1+  0.378  0.022  0.650  1.000
  Li12  Li1+  0.778  0.422  0.450  1.000
  Li12  Li1+  0.178  0.822  0.450  1.000
  Li12  Li1+  0.978  0.022  0.450  1.000
  Li12  Li1+  0.778  0.622  0.850  1.000
  Li12  Li1+  0.178  0.622  0.050  1.000
  Li12  Li1+  0.178  0.022  0.450  1.000
  Li12  Li1+  0.978  0.622  0.450  1.000
  Li12  Li1+  0.578  0.022  0.450  1.000
  Li12  Li1+  0.778  0.822  0.650  1.000
  Li12  Li1+  0.378  0.222  0.650  1.000
  Li12  Li1+  0.578  0.222  0.050  1.000
  Li12  Li1+  0.978  0.822  0.650  1.000
  Li12  Li1+  0.578  0.622  0.450  1.000
  Li12  Li1+  0.978  0.422  0.450  1.000
  Li12  Li1+  0.778  0.022  0.850  1.000
  Li12  Li1+  0.978  0.222  0.450  1.000
  Li12  Li1+  0.578  0.422  0.650  1.000
  Li12  Li1+  0.378  0.022  0.850  1.000
  Li12  Li1+  0.178  0.022  0.850  1.000
  Li12  Li1+  0.578  0.022  0.250  1.000
  Li12  Li1+  0.178  0.222  0.050  1.000
  Li12  Li1+  0.178  0.422  0.250  1.000
  Li12  Li1+  0.778  0.622  0.250  1.000
  Li12  Li1+  0.378  0.422  0.850  1.000
  Li12  Li1+  0.378  0.822  0.450  1.000
  Li12  Li1+  0.578  0.222  0.650  1.000
  Li12  Li1+  0.378  0.222  0.450  1.000
  Li12  Li1+  0.178  0.622  0.850  1.000
  Li12  Li1+  0.178  0.222  0.850  1.000
  Li12  Li1+  0.378  0.222  0.250  1.000
  Li12  Li1+  0.978  0.622  0.650  1.000
  Li12  Li1+  0.978  0.022  0.650  1.000
  Li12  Li1+  0.978  0.822  0.850  1.000
  Li12  Li1+  0.778  0.022  0.450  1.000
  Li12  Li1+  0.378  0.422  0.250  1.000
  Li13  Li1+  0.872  0.328  0.050  1.000
  Li13  Li1+  0.872  0.528  0.850  1.000
  Li13  Li1+  0.072  0.128  0.850  1.000
  Li13  Li1+  0.672  0.328  0.450  1.000
  Li13  Li1+  0.072  0.328  0.450  1.000
  Li13  Li1+  0.872  0.128  0.250  1.000
  Li13  Li1+  0.072  0.328  0.650  1.000
  Li13  Li1+  0.472  0.528  0.050  1.000
  Li13  Li1+  0.272  0.128  0.250  1.000
  Li13  Li1+  0.472  0.528  0.650  1.000
  Li13  Li1+  0.472  0.128  0.450  1.000
  Li13  Li1+  0.672  0.728  0.850  1.000
  Li13  Li1+  0.272  0.128  0.650  1.000
  Li13  Li1+  0.472  0.528  0.250  1.000
  Li13  Li1+  0.272  0.728  0.450  1.000
  Li13  Li1+  0.672  0.528  0.050  1.000
  Li13  Li1+  0.872  0.528  0.050  1.000
  Li13  Li1+  0.072  0.528  0.050  1.000
  Li13  Li1+  0.072  0.928  0.850  1.000
  Li13  Li1+  0.272  0.528  0.250  1.000
  Li13  Li1+  0.872  0.928  0.050  1.000
  Li13  Li1+  0.672  0.728  0.250  1.000
  Li13  Li1+  0.672  0.328  0.050  1.000
  Li13  Li1+  0.472  0.928  0.050  1.000
  Li13  Li1+  0.872  0.728  0.050  1.000
  Li13  Li1+  0.672  0.928  0.650  1.000
  Li13  Li1+  0.272  0.928  0.250  1.000
  Li13  Li1+  0.672  0.528  0.650  1.000
  Li13  Li1+  0.272  0.728  0.850  1.000
  Li13  Li1+  0.072  0.728  0.250  1.000
  Li13  Li1+  0.472  0.528  0.450  1.000
  Li13  Li1+  0.872  0.328  0.250  1.000
  Li13  Li1+  0.272  0.128  0.050  1.000
  Li13  Li1+  0.872  0.128  0.450  1.000
  Li13  Li1+  0.072  0.328  0.050  1.000
  Li13  Li1+  0.472  0.728  0.450  1.000
  Li13  Li1+  0.272  0.528  0.850  1.000
  Li13  Li1+  0.472  0.128  0.650  1.000
  Li13  Li1+  0.672  0.128  0.650  1.000
  Li13  Li1+  0.072  0.928  0.250  1.000
  Li13  Li1+  0.472  0.928  0.450  1.000
  Li13  Li1+  0.072  0.328  0.850  1.000
  Li13  Li1+  0.672  0.128  0.250  1.000
  Li13  Li1+  0.872  0.928  0.250  1.000
  Li13  Li1+  0.872  0.528  0.250  1.000
  Li13  Li1+  0.472  0.328  0.450  1.000
  Li13  Li1+  0.672  0.328  0.650  1.000
  Li13  Li1+  0.672  0.928  0.050  1.000
  Li13  Li1+  0.272  0.528  0.050  1.000
  Li13  Li1+  0.872  0.728  0.250  1.000
  Li13  Li1+  0.072  0.128  0.450  1.000
  Li13  Li1+  0.472  0.928  0.850  1.000
  Li13  Li1+  0.272  0.128  0.850  1.000
  Li13  Li1+  0.072  0.928  0.050  1.000
  Li13  Li1+  0.072  0.728  0.850  1.000
  Li13  Li1+  0.472  0.128  0.250  1.000
  Li13  Li1+  0.472  0.728  0.250  1.000
  Li13  Li1+  0.872  0.328  0.450  1.000
  Li13  Li1+  0.072  0.928  0.450  1.000
  Li13  Li1+  0.672  0.928  0.850  1.000
  Li13  Li1+  0.672  0.728  0.450  1.000
  Li13  Li1+  0.872  0.128  0.650  1.000
  Li13  Li1+  0.672  0.528  0.250  1.000
  Li13  Li1+  0.272  0.728  0.250  1.000
  Li13  Li1+  0.472  0.728  0.850  1.000
  Li13  Li1+  0.072  0.928  0.650  1.000
  Li13  Li1+  0.872  0.928  0.450  1.000
  Li13  Li1+  0.672  0.528  0.850  1.000
  Li13  Li1+  0.272  0.328  0.050  1.000
  Li13  Li1+  0.872  0.528  0.450  1.000
  Li13  Li1+  0.672  0.328  0.250  1.000
  Li13  Li1+  0.272  0.328  0.850  1.000
  Li13  Li1+  0.872  0.728  0.450  1.000
  Li13  Li1+  0.272  0.528  0.650  1.000
  Li13  Li1+  0.272  0.928  0.850  1.000
  Li13  Li1+  0.072  0.328  0.250  1.000
  Li13  Li1+  0.472  0.328  0.650  1.000
  Li13  Li1+  0.072  0.528  0.450  1.000
  Li13  Li1+  0.472  0.328  0.250  1.000
  Li13  Li1+  0.272  0.728  0.650  1.000
  Li13  Li1+  0.272  0.328  0.650  1.000
  Li13  Li1+  0.072  0.728  0.450  1.000
  Li13  Li1+  0.672  0.928  0.250  1.000
  Li13  Li1+  0.472  0.128  0.850  1.000
  Li13  Li1+  0.072  0.728  0.050  1.000
  Li13  Li1+  0.072  0.528  0.250  1.000
  Li13  Li1+  0.272  0.928  0.450  1.000
  Li13  Li1+  0.272  0.328  0.250  1.000
  Li13  Li1+  0.872  0.928  0.650  1.000
  Li13  Li1+  0.272  0.928  0.050  1.000
  Li13  Li1+  0.872  0.328  0.650  1.000
  Li13  Li1+  0.472  0.328  0.050  1.000
  Li13  Li1+  0.272  0.328  0.450  1.000
  Li13  Li1+  0.272  0.128  0.450  1.000
  Li13  Li1+  0.672  0.328  0.850  1.000
  Li13  Li1+  0.872  0.128  0.850  1.000
  Li13  Li1+  0.872  0.128  0.050  1.000
  Li13  Li1+  0.872  0.728  0.650  1.000
  Li13  Li1+  0.872  0.528  0.650  1.000
  Li13  Li1+  0.672  0.128  0.850  1.000
  Li13  Li1+  0.472  0.728  0.050  1.000
  Li13  Li1+  0.472  0.928  0.250  1.000
  Li13  Li1+  0.672  0.728  0.650  1.000
  Li13  Li1+  0.072  0.128  0.650  1.000
  Li13  Li1+  0.072  0.128  0.250  1.000
  Li13  Li1+  0.472  0.128  0.050  1.000
  Li13  Li1+  0.672  0.728  0.050  1.000
  Li13  Li1+  0.672  0.528  0.450  1.000
  Li13  Li1+  0.672  0.128  0.450  1.000
  Li13  Li1+  0.072  0.728  0.650  1.000
  Li13  Li1+  0.072  0.528  0.650  1.000
  Li13  Li1+  0.872  0.928  0.850  1.000
  Li13  Li1+  0.472  0.328  0.850  1.000
  Li13  Li1+  0.272  0.528  0.450  1.000
  Li13  Li1+  0.272  0.728  0.050  1.000
  Li13  Li1+  0.072  0.128  0.050  1.000
  Li13  Li1+  0.472  0.728  0.650  1.000
  Li13  Li1+  0.672  0.928  0.450  1.000
  Li13  Li1+  0.872  0.328  0.850  1.000
  Li13  Li1+  0.472  0.928  0.650  1.000
  Li13  Li1+  0.672  0.128  0.050  1.000
  Li13  Li1+  0.272  0.928  0.650  1.000
  Li13  Li1+  0.472  0.528  0.850  1.000
  Li13  Li1+  0.872  0.728  0.850  1.000
  Li13  Li1+  0.072  0.528  0.850  1.000
  Li14  Li1+  0.400  -0.000  0.100  1.000
  Li14  Li1+  0.200  0.600  0.300  1.000
  Li14  Li1+  0.400  0.200  0.100  1.000
  Li14  Li1+  0.600  0.400  0.500  1.000
  Li14  Li1+  0.800  0.800  0.100  1.000
  Li14  Li1+  0.400  0.800  0.900  1.000
  Li14  Li1+  0.000  0.000  0.500  1.000
  Li14  Li1+  0.800  0.400  0.300  1.000
  Li14  Li1+  0.000  0.800  0.900  1.000
  Li14  Li1+  0.800  -0.000  0.700  1.000
  Li14  Li1+  0.000  0.600  0.500  1.000
  Li14  Li1+  0.400  0.600  0.700  1.000
  Li14  Li1+  0.600  0.200  0.100  1.000
  Li14  Li1+  0.600  0.800  0.300  1.000
  Li14  Li1+  0.800  0.200  0.500  1.000
  Li14  Li1+  0.600  -0.000  0.300  1.000
  Li14  Li1+  0.600  0.600  0.100  1.000
  Li14  Li1+  0.600  -0.000  0.700  1.000
  Li14  Li1+  0.600  0.600  0.700  1.000
  Li14  Li1+  0.000  0.800  0.100  1.000
  Li14  Li1+  0.400  0.400  0.100  1.000
  Li14  Li1+  0.000  0.800  0.300  1.000
  Li14  Li1+  0.800  0.600  0.300  1.000
  Li14  Li1+  0.200  0.400  0.500  1.000
  Li14  Li1+  0.200  0.200  0.100  1.000
  Li14  Li1+  0.400  0.800  0.300  1.000
  Li14  Li1+  0.000  0.400  0.100  1.000
  Li14  Li1+  0.600  0.400  0.100  1.000
  Li14  Li1+  0.800  0.800  0.300  1.000
  Li14  Li1+  0.000  -0.000  0.700  1.000
  Li14  Li1+  0.800  -0.000  0.100  1.000
  Li14  Li1+  0.200  0.600  0.700  1.000
  Li14  Li1+  0.000  -0.000  0.300  1.000
  Li14  Li1+  0.400  0.200  0.700  1.000
  Li14  Li1+  0.400  0.600  0.500  1.000
  Li14  Li1+  0.400  -0.000  0.300  1.000
  Li14  Li1+  0.800  0.400  0.500  1.000
  Li14  Li1+  0.000  0.400  0.300  1.000
  Li14  Li1+  0.400  0.400  0.300  1.000
  Li14  Li1+  0.200  0.200  0.300  1.000
  Li14  Li1+  0.200  0.400  0.300  1.000
  Li14  Li1+  0.800  0.000  0.900  1.000
  Li14  Li1+  0.000  0.800  0.500  1.000
  Li14  Li1+  0.800  0.200  0.700  1.000
  Li14  Li1+  0.200  -0.000  0.700  1.000
  Li14  Li1+  0.600  0.800  0.500  1.000
  Li14  Li1+  0.200  0.600  0.100  1.000
  Li14  Li1+  0.600  0.200  0.700  1.000
  Li14  Li1+  0.800  0.600  0.500  1.000
  Li14  Li1+  0.000  0.600  0.700  1.000
  Li14  Li1+  0.400  0.600  0.300  1.000
  Li14  Li1+  0.600  0.400  0.700  1.000
  Li14  Li1+  0.400  -0.000  0.700  1.000
  Li14  Li1+  0.800  0.800  0.500  1.000
  Li14  Li1+  0.200  0.800  0.100  1.000
  Li14  Li1+  0.400  0.000  0.500  1.000
  Li14  Li1+  0.000  0.600  0.300  1.000
  Li14  Li1+  0.400  0.800  0.700  1.000
  Li14  Li1+  0.000  0.400  0.700  1.000
  Li14  Li1+  0.600  0.600  0.900  1.000
  Li14  Li1+  0.600  0.600  0.300  1.000
  Li14  Li1+  0.400  0.400  0.700  1.000
  Li14  Li1+  0.200  0.800  0.500  1.000
  Li14  Li1+  0.400  0.800  0.100  1.000
  Li14  Li1+  0.400  0.600  0.100  1.000
  Li14  Li1+  0.800  0.400  0.700  1.000
  Li14  Li1+  0.200  0.400  0.100  1.000
  Li14  Li1+  0.600  0.200  0.300  1.000
  Li14  Li1+  0.800  -0.000  0.300  1.000
  Li14  Li1+  0.200  0.200  0.500  1.000
  Li14  Li1+  0.400  0.400  0.900  1.000
  Li14  Li1+  0.200  0.200  0.700  1.000
  Li14  Li1+  0.600  -0.000  0.100  1.000
  Li14  Li1+  0.800  0.200  0.100  1.000
  Li14  Li1+  0.800  0.200  0.900  1.000
  Li14  Li1+  0.800  0.600  0.700  1.000
  Li14  Li1+  0.200  0.200  0.900  1.000
  Li14  Li1+  0.800  0.800  0.700  1.000
  Li14  Li1+  0.600  0.000  0.900  1.000
  Li14  Li1+  0.600  0.000  0.500  1.000
  Li14  Li1+  0.600  0.400  0.300  1.000
  Li14  Li1+  0.000  0.000  0.900  1.000
  Li14  Li1+  0.400  0.400  0.500  1.000
  Li14  Li1+  0.600  0.800  0.700  1.000
  Li14  Li1+  0.200  0.400  0.900  1.000
  Li14  Li1+  0.200  0.600  0.500  1.000
  Li14  Li1+  0.000  0.200  0.700  1.000
  Li14  Li1+  0.200  -0.000  0.100  1.000
  Li14  Li1+  0.400  0.000  0.900  1.000
  Li14  Li1+  0.200  0.800  0.900  1.000
  Li14  Li1+  0.200  -0.000  0.300  1.000
  Li14  Li1+  0.600  0.400  0.900  1.000
  Li14  Li1+  0.800  0.400  0.900  1.000
  Li14  Li1+  0.000  0.200  0.300  1.000
  Li14  Li1+  0.200  0.000  0.500  1.000
  Li14  Li1+  0.000  0.600  0.100  1.000
  Li14  Li1+  0.600  0.800  0.100  1.000
  Li14  Li1+  0.400  0.200  0.900  1.000
  Li14  Li1+  0.800  0.000  0.500  1.000
  Li14  Li1+  0.600  0.600  0.500  1.000
  Li14  Li1+  0.800  0.400  0.100  1.000
  Li14  Li1+  0.800  0.800  0.900  1.000
  Li14  Li1+  0.800  0.600  0.900  1.000
  Li14  Li1+  0.000  0.400  0.500  1.000
  Li14  Li1+  0.000  0.400  0.900  1.000
  Li14  Li1+  0.600  0.200  0.900  1.000
  Li14  Li1+  0.800  0.200  0.300  1.000
  Li14  Li1+  0.200  0.600  0.900  1.000
  Li14  Li1+  0.400  0.600  0.900  1.000
  Li14  Li1+  0.400  0.800  0.500  1.000
  Li14  Li1+  0.400  0.200  0.500  1.000
  Li14  Li1+  0.200  0.000  0.900  1.000
  Li14  Li1+  0.000  0.200  0.900  1.000
  Li14  Li1+  0.000  0.600  0.900  1.000
  Li14  Li1+  0.000  0.200  0.500  1.000
  Li14  Li1+  0.400  0.200  0.300  1.000
  Li14  Li1+  0.200  0.400  0.700  1.000
  Li14  Li1+  0.000  -0.000  0.100  1.000
  Li14  Li1+  0.200  0.800  0.300  1.000
  Li14  Li1+  0.000  0.200  0.100  1.000
  Li14  Li1+  0.800  0.600  0.100  1.000
  Li14  Li1+  0.000  0.800  0.700  1.000
  Li14  Li1+  0.200  0.800  0.700  1.000
  Li14  Li1+  0.600  0.800  0.900  1.000
  Li14  Li1+  0.600  0.200  0.500  1.000
  Li15  Li1+  0.600  0.300  0.600  1.000
  Li15  Li1+  0.800  0.900  0.000  1.000
  Li15  Li1+  0.000  0.900  0.800  1.000
  Li15  Li1+  0.200  0.900  0.200  1.000
  Li15  Li1+  0.400  0.300  0.200  1.000
  Li15  Li1+  0.600  0.500  0.600  1.000
  Li15  Li1+  0.800  0.100  0.000  1.000
  Li15  Li1+  0.400  0.100  0.200  1.000
  Li15  Li1+  0.400  0.700  0.000  1.000
  Li15  Li1+  0.200  0.100  0.600  1.000
  Li15  Li1+  0.600  0.100  0.000  1.000
  Li15  Li1+  0.600  0.300  0.200  1.000
  Li15  Li1+  0.400  0.500  0.200  1.000
  Li15  Li1+  0.200  0.300  0.200  1.000
  Li15  Li1+  0.600  0.900  0.400  1.000
  Li15  Li1+  0.600  0.700  0.200  1.000
  Li15  Li1+  0.800  0.700  0.200  1.000
  Li15  Li1+  0.000  0.900  0.200  1.000
  Li15  Li1+  0.600  0.100  0.800  1.000
  Li15  Li1+  0.800  0.100  0.800  1.000
  Li15  Li1+  0.600  0.700  0.800  1.000
  Li15  Li1+  0.600  0.100  0.400  1.000
  Li15  Li1+  0.200  0.500  0.200  1.000
  Li15  Li1+  0.000  0.700  0.400  1.000
  Li15  Li1+  0.400  0.500  0.800  1.000
  Li15  Li1+  0.800  0.500  0.400  1.000
  Li15  Li1+  0.200  0.300  0.400  1.000
  Li15  Li1+  0.800  0.900  0.200  1.000
  Li15  Li1+  0.800  0.300  0.600  1.000
  Li15  Li1+  0.200  0.900  0.800  1.000
  Li15  Li1+  0.600  0.500  0.200  1.000
  Li15  Li1+  0.400  0.500  0.600  1.000
  Li15  Li1+  0.400  0.500  0.400  1.000
  Li15  Li1+  0.200  0.700  0.600  1.000
  Li15  Li1+  0.200  0.700  0.000  1.000
  Li15  Li1+  0.200  0.500  0.000  1.000
  Li15  Li1+  0.400  0.700  0.800  1.000
  Li15  Li1+  0.400  0.100  0.400  1.000
  Li15  Li1+  0.400  0.900  0.400  1.000
  Li15  Li1+  0.200  0.300  0.800  1.000
  Li15  Li1+  0.800  0.100  0.200  1.000
  Li15  Li1+  0.000  0.500  0.000  1.000
  Li15  Li1+  0.200  0.300  0.600  1.000
  Li15  Li1+  0.800  0.700  0.400  1.000
  Li15  Li1+  0.200  0.100  0.400  1.000
  Li15  Li1+  0.000  0.900  0.600  1.000
  Li15  Li1+  0.000  0.300  0.600  1.000
  Li15  Li1+  0.600  0.500  0.800  1.000
  Li15  Li1+  0.000  0.100  0.400  1.000
  Li15  Li1+  0.200  0.100  0.000  1.000
  Li15  Li1+  0.600  0.300  0.800  1.000
  Li15  Li1+  0.800  0.300  0.000  1.000
  Li15  Li1+  0.600  0.900  0.600  1.000
  Li15  Li1+  0.800  0.900  0.400  1.000
  Li15  Li1+  0.200  0.900  0.000  1.000
  Li15  Li1+  0.800  0.500  0.600  1.000
  Li15  Li1+  0.400  0.300  0.600  1.000
  Li15  Li1+  0.000  0.300  0.400  1.000
  Li15  Li1+  0.400  0.100  0.800  1.000
  Li15  Li1+  0.800  0.300  0.800  1.000
  Li15  Li1+  0.600  0.700  0.400  1.000
  Li15  Li1+  0.600  0.900  0.000  1.000
  Li15  Li1+  0.000  0.300  0.800  1.000
  Li15  Li1+  0.400  0.900  0.800  1.000
  Li15  Li1+  0.200  0.100  0.800  1.000
  Li15  Li1+  0.400  0.700  0.600  1.000
  Li15  Li1+  0.200  0.500  0.800  1.000
  Li15  Li1+  0.200  0.900  0.400  1.000
  Li15  Li1+  0.000  0.300  0.000  1.000
  Li15  Li1+  0.000  0.100  0.600  1.000
  Li15  Li1+  0.000  0.500  0.600  1.000
  Li15  Li1+  0.800  0.700  0.600  1.000
  Li15  Li1+  0.600  0.300  0.400  1.000
  Li15  Li1+  0.200  0.100  0.200  1.000
  Li15  Li1+  0.800  0.100  0.400  1.000
  Li15  Li1+  0.200  0.700  0.400  1.000
  Li15  Li1+  0.000  0.700  0.800  1.000
  Li15  Li1+  0.400  0.900  0.200  1.000
  Li15  Li1+  0.600  0.100  0.200  1.000
  Li15  Li1+  0.800  0.900  0.600  1.000
  Li15  Li1+  0.600  0.500  0.400  1.000
  Li15  Li1+  0.600  0.300  0.000  1.000
  Li15  Li1+  0.000  0.700  0.200  1.000
  Li15  Li1+  0.400  0.100  0.600  1.000
  Li15  Li1+  0.800  0.500  0.800  1.000
  Li15  Li1+  0.600  0.100  0.600  1.000
  Li15  Li1+  0.000  0.500  0.200  1.000
  Li15  Li1+  0.800  0.300  0.200  1.000
  Li15  Li1+  0.000  0.700  0.600  1.000
  Li15  Li1+  0.000  0.100  0.800  1.000
  Li15  Li1+  0.800  0.500  0.000  1.000
  Li15  Li1+  0.000  0.500  0.400  1.000
  Li15  Li1+  0.000  0.900  0.400  1.000
  Li15  Li1+  0.600  0.900  0.800  1.000
  Li15  Li1+  0.400  0.300  0.800  1.000
  Li15  Li1+  0.600  0.700  0.000  1.000
  Li15  Li1+  0.000  0.900  0.000  1.000
  Li15  Li1+  0.400  0.700  0.400  1.000
  Li15  Li1+  0.200  0.900  0.600  1.000
  Li15  Li1+  0.800  0.700  0.800  1.000
  Li15  Li1+  0.000  0.300  0.200  1.000
  Li15  Li1+  0.600  0.900  0.200  1.000
  Li15  Li1+  0.200  0.500  0.600  1.000
  Li15  Li1+  0.000  0.700  0.000  1.000
  Li15  Li1+  0.600  0.700  0.600  1.000
  Li15  Li1+  0.800  0.900  0.800  1.000
  Li15  Li1+  0.000  0.500  0.800  1.000
  Li15  Li1+  0.200  0.700  0.800  1.000
  Li15  Li1+  0.000  0.100  0.200  1.000
  Li15  Li1+  0.600  0.500  0.000  1.000
  Li15  Li1+  0.400  0.300  0.400  1.000
  Li15  Li1+  0.800  0.100  0.600  1.000
  Li15  Li1+  0.200  0.300  0.000  1.000
  Li15  Li1+  0.800  0.700  0.000  1.000
  Li15  Li1+  0.000  0.100  0.000  1.000
  Li15  Li1+  0.400  0.100  0.000  1.000
  Li15  Li1+  0.400  0.500  0.000  1.000
  Li15  Li1+  0.400  0.700  0.200  1.000
  Li15  Li1+  0.400  0.900  0.600  1.000
  Li15  Li1+  0.400  0.300  0.000  1.000
  Li15  Li1+  0.800  0.500  0.200  1.000
  Li15  Li1+  0.800  0.300  0.400  1.000
  Li15  Li1+  0.400  0.900  0.000  1.000
  Li15  Li1+  0.200  0.700  0.200  1.000
  Li15  Li1+  0.200  0.500  0.400  1.000

#end of data
