data_generated-by-softBV

_chemical_name_systematic         'H1+:8.000 Li1+:16.000 N3-:8.000 '
_cell_length_a                    35.777
_cell_length_b                    35.777
_cell_length_c                    35.777
_cell_angle_alpha                 120.461
_cell_angle_beta                  120.326
_cell_angle_gamma                 89.320
_cell_volume                      32185.609
_cell_formula_units_Z             0
_symmetry_space_group_name_H-M    'P 1'
_symmetry_Int_Tables_number       1

loop_
  _symmetry_equiv_pos_site_id
  _symmetry_equiv_pos_as_xyz
    1    'x, y, z'

loop_
  _atom_type_symbol
  _atom_type_oxidation_number
  H1+     1
  Li1+     1
  N3-     -3

loop_
  _atom_site_label
  _atom_site_type_symbol
  _atom_site_fract_x
  _atom_site_fract_y
  _atom_site_fract_z
  _atom_site_occupancy
  H16  H1+  0.140  0.063  0.023  1.000
  H16  H1+  0.140  0.063  0.223  1.000
  H16  H1+  0.140  0.063  0.423  1.000
  H16  H1+  0.140  0.063  0.623  1.000
  H16  H1+  0.140  0.063  0.823  1.000
  H16  H1+  0.140  0.263  0.023  1.000
  H16  H1+  0.140  0.263  0.223  1.000
  H16  H1+  0.140  0.263  0.423  1.000
  H16  H1+  0.140  0.263  0.623  1.000
  H16  H1+  0.140  0.263  0.823  1.000
  H16  H1+  0.140  0.463  0.023  1.000
  H16  H1+  0.140  0.463  0.223  1.000
  H16  H1+  0.140  0.463  0.423  1.000
  H16  H1+  0.140  0.463  0.623  1.000
  H16  H1+  0.140  0.463  0.823  1.000
  H16  H1+  0.140  0.663  0.023  1.000
  H16  H1+  0.140  0.663  0.223  1.000
  H16  H1+  0.140  0.663  0.423  1.000
  H16  H1+  0.140  0.663  0.623  1.000
  H16  H1+  0.140  0.663  0.823  1.000
  H16  H1+  0.140  0.863  0.023  1.000
  H16  H1+  0.140  0.863  0.223  1.000
  H16  H1+  0.140  0.863  0.423  1.000
  H16  H1+  0.140  0.863  0.623  1.000
  H16  H1+  0.140  0.863  0.823  1.000
  H16  H1+  0.340  0.063  0.023  1.000
  H16  H1+  0.340  0.063  0.223  1.000
  H16  H1+  0.340  0.063  0.423  1.000
  H16  H1+  0.340  0.063  0.623  1.000
  H16  H1+  0.340  0.063  0.823  1.000
  H16  H1+  0.340  0.263  0.023  1.000
  H16  H1+  0.340  0.263  0.223  1.000
  H16  H1+  0.340  0.263  0.423  1.000
  H16  H1+  0.340  0.263  0.623  1.000
  H16  H1+  0.340  0.263  0.823  1.000
  H16  H1+  0.340  0.463  0.023  1.000
  H16  H1+  0.340  0.463  0.223  1.000
  H16  H1+  0.340  0.463  0.423  1.000
  H16  H1+  0.340  0.463  0.623  1.000
  H16  H1+  0.340  0.463  0.823  1.000
  H16  H1+  0.340  0.663  0.023  1.000
  H16  H1+  0.340  0.663  0.223  1.000
  H16  H1+  0.340  0.663  0.423  1.000
  H16  H1+  0.340  0.663  0.623  1.000
  H16  H1+  0.340  0.663  0.823  1.000
  H16  H1+  0.340  0.863  0.023  1.000
  H16  H1+  0.340  0.863  0.223  1.000
  H16  H1+  0.340  0.863  0.423  1.000
  H16  H1+  0.340  0.863  0.623  1.000
  H16  H1+  0.340  0.863  0.823  1.000
  H16  H1+  0.540  0.063  0.023  1.000
  H16  H1+  0.540  0.063  0.223  1.000
  H16  H1+  0.540  0.063  0.423  1.000
  H16  H1+  0.540  0.063  0.623  1.000
  H16  H1+  0.540  0.063  0.823  1.000
  H16  H1+  0.540  0.263  0.023  1.000
  H16  H1+  0.540  0.263  0.223  1.000
  H16  H1+  0.540  0.263  0.423  1.000
  H16  H1+  0.540  0.263  0.623  1.000
  H16  H1+  0.540  0.263  0.823  1.000
  H16  H1+  0.540  0.463  0.023  1.000
  H16  H1+  0.540  0.463  0.223  1.000
  H16  H1+  0.540  0.463  0.423  1.000
  H16  H1+  0.540  0.463  0.623  1.000
  H16  H1+  0.540  0.463  0.823  1.000
  H16  H1+  0.540  0.663  0.023  1.000
  H16  H1+  0.540  0.663  0.223  1.000
  H16  H1+  0.540  0.663  0.423  1.000
  H16  H1+  0.540  0.663  0.623  1.000
  H16  H1+  0.540  0.663  0.823  1.000
  H16  H1+  0.540  0.863  0.023  1.000
  H16  H1+  0.540  0.863  0.223  1.000
  H16  H1+  0.540  0.863  0.423  1.000
  H16  H1+  0.540  0.863  0.623  1.000
  H16  H1+  0.540  0.863  0.823  1.000
  H16  H1+  0.740  0.063  0.023  1.000
  H16  H1+  0.740  0.063  0.223  1.000
  H16  H1+  0.740  0.063  0.423  1.000
  H16  H1+  0.740  0.063  0.623  1.000
  H16  H1+  0.740  0.063  0.823  1.000
  H16  H1+  0.740  0.263  0.023  1.000
  H16  H1+  0.740  0.263  0.223  1.000
  H16  H1+  0.740  0.263  0.423  1.000
  H16  H1+  0.740  0.263  0.623  1.000
  H16  H1+  0.740  0.263  0.823  1.000
  H16  H1+  0.740  0.463  0.023  1.000
  H16  H1+  0.740  0.463  0.223  1.000
  H16  H1+  0.740  0.463  0.423  1.000
  H16  H1+  0.740  0.463  0.623  1.000
  H16  H1+  0.740  0.463  0.823  1.000
  H16  H1+  0.740  0.663  0.023  1.000
  H16  H1+  0.740  0.663  0.223  1.000
  H16  H1+  0.740  0.663  0.423  1.000
  H16  H1+  0.740  0.663  0.623  1.000
  H16  H1+  0.740  0.663  0.823  1.000
  H16  H1+  0.740  0.863  0.023  1.000
  H16  H1+  0.740  0.863  0.223  1.000
  H16  H1+  0.740  0.863  0.423  1.000
  H16  H1+  0.740  0.863  0.623  1.000
  H16  H1+  0.740  0.863  0.823  1.000
  H16  H1+  0.940  0.063  0.023  1.000
  H16  H1+  0.940  0.063  0.223  1.000
  H16  H1+  0.940  0.063  0.423  1.000
  H16  H1+  0.940  0.063  0.623  1.000
  H16  H1+  0.940  0.063  0.823  1.000
  H16  H1+  0.940  0.263  0.023  1.000
  H16  H1+  0.940  0.263  0.223  1.000
  H16  H1+  0.940  0.263  0.423  1.000
  H16  H1+  0.940  0.263  0.623  1.000
  H16  H1+  0.940  0.263  0.823  1.000
  H16  H1+  0.940  0.463  0.023  1.000
  H16  H1+  0.940  0.463  0.223  1.000
  H16  H1+  0.940  0.463  0.423  1.000
  H16  H1+  0.940  0.463  0.623  1.000
  H16  H1+  0.940  0.463  0.823  1.000
  H16  H1+  0.940  0.663  0.023  1.000
  H16  H1+  0.940  0.663  0.223  1.000
  H16  H1+  0.940  0.663  0.423  1.000
  H16  H1+  0.940  0.663  0.623  1.000
  H16  H1+  0.940  0.663  0.823  1.000
  H16  H1+  0.940  0.863  0.023  1.000
  H16  H1+  0.940  0.863  0.223  1.000
  H16  H1+  0.940  0.863  0.423  1.000
  H16  H1+  0.940  0.863  0.623  1.000
  H16  H1+  0.940  0.863  0.823  1.000
  H17  H1+  0.141  0.120  0.079  1.000
  H17  H1+  0.141  0.120  0.279  1.000
  H17  H1+  0.141  0.120  0.479  1.000
  H17  H1+  0.141  0.120  0.679  1.000
  H17  H1+  0.141  0.120  0.879  1.000
  H17  H1+  0.141  0.320  0.079  1.000
  H17  H1+  0.141  0.320  0.279  1.000
  H17  H1+  0.141  0.320  0.479  1.000
  H17  H1+  0.141  0.320  0.679  1.000
  H17  H1+  0.141  0.320  0.879  1.000
  H17  H1+  0.141  0.520  0.079  1.000
  H17  H1+  0.141  0.520  0.279  1.000
  H17  H1+  0.141  0.520  0.479  1.000
  H17  H1+  0.141  0.520  0.679  1.000
  H17  H1+  0.141  0.520  0.879  1.000
  H17  H1+  0.141  0.720  0.079  1.000
  H17  H1+  0.141  0.720  0.279  1.000
  H17  H1+  0.141  0.720  0.479  1.000
  H17  H1+  0.141  0.720  0.679  1.000
  H17  H1+  0.141  0.720  0.879  1.000
  H17  H1+  0.141  0.920  0.079  1.000
  H17  H1+  0.141  0.920  0.279  1.000
  H17  H1+  0.141  0.920  0.479  1.000
  H17  H1+  0.141  0.920  0.679  1.000
  H17  H1+  0.141  0.920  0.879  1.000
  H17  H1+  0.341  0.120  0.079  1.000
  H17  H1+  0.341  0.120  0.279  1.000
  H17  H1+  0.341  0.120  0.479  1.000
  H17  H1+  0.341  0.120  0.679  1.000
  H17  H1+  0.341  0.120  0.879  1.000
  H17  H1+  0.341  0.320  0.079  1.000
  H17  H1+  0.341  0.320  0.279  1.000
  H17  H1+  0.341  0.320  0.479  1.000
  H17  H1+  0.341  0.320  0.679  1.000
  H17  H1+  0.341  0.320  0.879  1.000
  H17  H1+  0.341  0.520  0.079  1.000
  H17  H1+  0.341  0.520  0.279  1.000
  H17  H1+  0.341  0.520  0.479  1.000
  H17  H1+  0.341  0.520  0.679  1.000
  H17  H1+  0.341  0.520  0.879  1.000
  H17  H1+  0.341  0.720  0.079  1.000
  H17  H1+  0.341  0.720  0.279  1.000
  H17  H1+  0.341  0.720  0.479  1.000
  H17  H1+  0.341  0.720  0.679  1.000
  H17  H1+  0.341  0.720  0.879  1.000
  H17  H1+  0.341  0.920  0.079  1.000
  H17  H1+  0.341  0.920  0.279  1.000
  H17  H1+  0.341  0.920  0.479  1.000
  H17  H1+  0.341  0.920  0.679  1.000
  H17  H1+  0.341  0.920  0.879  1.000
  H17  H1+  0.541  0.120  0.079  1.000
  H17  H1+  0.541  0.120  0.279  1.000
  H17  H1+  0.541  0.120  0.479  1.000
  H17  H1+  0.541  0.120  0.679  1.000
  H17  H1+  0.541  0.120  0.879  1.000
  H17  H1+  0.541  0.320  0.079  1.000
  H17  H1+  0.541  0.320  0.279  1.000
  H17  H1+  0.541  0.320  0.479  1.000
  H17  H1+  0.541  0.320  0.679  1.000
  H17  H1+  0.541  0.320  0.879  1.000
  H17  H1+  0.541  0.520  0.079  1.000
  H17  H1+  0.541  0.520  0.279  1.000
  H17  H1+  0.541  0.520  0.479  1.000
  H17  H1+  0.541  0.520  0.679  1.000
  H17  H1+  0.541  0.520  0.879  1.000
  H17  H1+  0.541  0.720  0.079  1.000
  H17  H1+  0.541  0.720  0.279  1.000
  H17  H1+  0.541  0.720  0.479  1.000
  H17  H1+  0.541  0.720  0.679  1.000
  H17  H1+  0.541  0.720  0.879  1.000
  H17  H1+  0.541  0.920  0.079  1.000
  H17  H1+  0.541  0.920  0.279  1.000
  H17  H1+  0.541  0.920  0.479  1.000
  H17  H1+  0.541  0.920  0.679  1.000
  H17  H1+  0.541  0.920  0.879  1.000
  H17  H1+  0.741  0.120  0.079  1.000
  H17  H1+  0.741  0.120  0.279  1.000
  H17  H1+  0.741  0.120  0.479  1.000
  H17  H1+  0.741  0.120  0.679  1.000
  H17  H1+  0.741  0.120  0.879  1.000
  H17  H1+  0.741  0.320  0.079  1.000
  H17  H1+  0.741  0.320  0.279  1.000
  H17  H1+  0.741  0.320  0.479  1.000
  H17  H1+  0.741  0.320  0.679  1.000
  H17  H1+  0.741  0.320  0.879  1.000
  H17  H1+  0.741  0.520  0.079  1.000
  H17  H1+  0.741  0.520  0.279  1.000
  H17  H1+  0.741  0.520  0.479  1.000
  H17  H1+  0.741  0.520  0.679  1.000
  H17  H1+  0.741  0.520  0.879  1.000
  H17  H1+  0.741  0.720  0.079  1.000
  H17  H1+  0.741  0.720  0.279  1.000
  H17  H1+  0.741  0.720  0.479  1.000
  H17  H1+  0.741  0.720  0.679  1.000
  H17  H1+  0.741  0.720  0.879  1.000
  H17  H1+  0.741  0.920  0.079  1.000
  H17  H1+  0.741  0.920  0.279  1.000
  H17  H1+  0.741  0.920  0.479  1.000
  H17  H1+  0.741  0.920  0.679  1.000
  H17  H1+  0.741  0.920  0.879  1.000
  H17  H1+  0.941  0.120  0.079  1.000
  H17  H1+  0.941  0.120  0.279  1.000
  H17  H1+  0.941  0.120  0.479  1.000
  H17  H1+  0.941  0.120  0.679  1.000
  H17  H1+  0.941  0.120  0.879  1.000
  H17  H1+  0.941  0.320  0.079  1.000
  H17  H1+  0.941  0.320  0.279  1.000
  H17  H1+  0.941  0.320  0.479  1.000
  H17  H1+  0.941  0.320  0.679  1.000
  H17  H1+  0.941  0.320  0.879  1.000
  H17  H1+  0.941  0.520  0.079  1.000
  H17  H1+  0.941  0.520  0.279  1.000
  H17  H1+  0.941  0.520  0.479  1.000
  H17  H1+  0.941  0.520  0.679  1.000
  H17  H1+  0.941  0.520  0.879  1.000
  H17  H1+  0.941  0.720  0.079  1.000
  H17  H1+  0.941  0.720  0.279  1.000
  H17  H1+  0.941  0.720  0.479  1.000
  H17  H1+  0.941  0.720  0.679  1.000
  H17  H1+  0.941  0.720  0.879  1.000
  H17  H1+  0.941  0.920  0.079  1.000
  H17  H1+  0.941  0.920  0.279  1.000
  H17  H1+  0.941  0.920  0.479  1.000
  H17  H1+  0.941  0.920  0.679  1.000
  H17  H1+  0.941  0.920  0.879  1.000
  H18  H1+  0.077  0.060  0.017  1.000
  H18  H1+  0.077  0.060  0.217  1.000
  H18  H1+  0.077  0.060  0.417  1.000
  H18  H1+  0.077  0.060  0.617  1.000
  H18  H1+  0.077  0.060  0.817  1.000
  H18  H1+  0.077  0.260  0.017  1.000
  H18  H1+  0.077  0.260  0.217  1.000
  H18  H1+  0.077  0.260  0.417  1.000
  H18  H1+  0.077  0.260  0.617  1.000
  H18  H1+  0.077  0.260  0.817  1.000
  H18  H1+  0.077  0.460  0.017  1.000
  H18  H1+  0.077  0.460  0.217  1.000
  H18  H1+  0.077  0.460  0.417  1.000
  H18  H1+  0.077  0.460  0.617  1.000
  H18  H1+  0.077  0.460  0.817  1.000
  H18  H1+  0.077  0.660  0.017  1.000
  H18  H1+  0.077  0.660  0.217  1.000
  H18  H1+  0.077  0.660  0.417  1.000
  H18  H1+  0.077  0.660  0.617  1.000
  H18  H1+  0.077  0.660  0.817  1.000
  H18  H1+  0.077  0.860  0.017  1.000
  H18  H1+  0.077  0.860  0.217  1.000
  H18  H1+  0.077  0.860  0.417  1.000
  H18  H1+  0.077  0.860  0.617  1.000
  H18  H1+  0.077  0.860  0.817  1.000
  H18  H1+  0.277  0.060  0.017  1.000
  H18  H1+  0.277  0.060  0.217  1.000
  H18  H1+  0.277  0.060  0.417  1.000
  H18  H1+  0.277  0.060  0.617  1.000
  H18  H1+  0.277  0.060  0.817  1.000
  H18  H1+  0.277  0.260  0.017  1.000
  H18  H1+  0.277  0.260  0.217  1.000
  H18  H1+  0.277  0.260  0.417  1.000
  H18  H1+  0.277  0.260  0.617  1.000
  H18  H1+  0.277  0.260  0.817  1.000
  H18  H1+  0.277  0.460  0.017  1.000
  H18  H1+  0.277  0.460  0.217  1.000
  H18  H1+  0.277  0.460  0.417  1.000
  H18  H1+  0.277  0.460  0.617  1.000
  H18  H1+  0.277  0.460  0.817  1.000
  H18  H1+  0.277  0.660  0.017  1.000
  H18  H1+  0.277  0.660  0.217  1.000
  H18  H1+  0.277  0.660  0.417  1.000
  H18  H1+  0.277  0.660  0.617  1.000
  H18  H1+  0.277  0.660  0.817  1.000
  H18  H1+  0.277  0.860  0.017  1.000
  H18  H1+  0.277  0.860  0.217  1.000
  H18  H1+  0.277  0.860  0.417  1.000
  H18  H1+  0.277  0.860  0.617  1.000
  H18  H1+  0.277  0.860  0.817  1.000
  H18  H1+  0.477  0.060  0.017  1.000
  H18  H1+  0.477  0.060  0.217  1.000
  H18  H1+  0.477  0.060  0.417  1.000
  H18  H1+  0.477  0.060  0.617  1.000
  H18  H1+  0.477  0.060  0.817  1.000
  H18  H1+  0.477  0.260  0.017  1.000
  H18  H1+  0.477  0.260  0.217  1.000
  H18  H1+  0.477  0.260  0.417  1.000
  H18  H1+  0.477  0.260  0.617  1.000
  H18  H1+  0.477  0.260  0.817  1.000
  H18  H1+  0.477  0.460  0.017  1.000
  H18  H1+  0.477  0.460  0.217  1.000
  H18  H1+  0.477  0.460  0.417  1.000
  H18  H1+  0.477  0.460  0.617  1.000
  H18  H1+  0.477  0.460  0.817  1.000
  H18  H1+  0.477  0.660  0.017  1.000
  H18  H1+  0.477  0.660  0.217  1.000
  H18  H1+  0.477  0.660  0.417  1.000
  H18  H1+  0.477  0.660  0.617  1.000
  H18  H1+  0.477  0.660  0.817  1.000
  H18  H1+  0.477  0.860  0.017  1.000
  H18  H1+  0.477  0.860  0.217  1.000
  H18  H1+  0.477  0.860  0.417  1.000
  H18  H1+  0.477  0.860  0.617  1.000
  H18  H1+  0.477  0.860  0.817  1.000
  H18  H1+  0.677  0.060  0.017  1.000
  H18  H1+  0.677  0.060  0.217  1.000
  H18  H1+  0.677  0.060  0.417  1.000
  H18  H1+  0.677  0.060  0.617  1.000
  H18  H1+  0.677  0.060  0.817  1.000
  H18  H1+  0.677  0.260  0.017  1.000
  H18  H1+  0.677  0.260  0.217  1.000
  H18  H1+  0.677  0.260  0.417  1.000
  H18  H1+  0.677  0.260  0.617  1.000
  H18  H1+  0.677  0.260  0.817  1.000
  H18  H1+  0.677  0.460  0.017  1.000
  H18  H1+  0.677  0.460  0.217  1.000
  H18  H1+  0.677  0.460  0.417  1.000
  H18  H1+  0.677  0.460  0.617  1.000
  H18  H1+  0.677  0.460  0.817  1.000
  H18  H1+  0.677  0.660  0.017  1.000
  H18  H1+  0.677  0.660  0.217  1.000
  H18  H1+  0.677  0.660  0.417  1.000
  H18  H1+  0.677  0.660  0.617  1.000
  H18  H1+  0.677  0.660  0.817  1.000
  H18  H1+  0.677  0.860  0.017  1.000
  H18  H1+  0.677  0.860  0.217  1.000
  H18  H1+  0.677  0.860  0.417  1.000
  H18  H1+  0.677  0.860  0.617  1.000
  H18  H1+  0.677  0.860  0.817  1.000
  H18  H1+  0.877  0.060  0.017  1.000
  H18  H1+  0.877  0.060  0.217  1.000
  H18  H1+  0.877  0.060  0.417  1.000
  H18  H1+  0.877  0.060  0.617  1.000
  H18  H1+  0.877  0.060  0.817  1.000
  H18  H1+  0.877  0.260  0.017  1.000
  H18  H1+  0.877  0.260  0.217  1.000
  H18  H1+  0.877  0.260  0.417  1.000
  H18  H1+  0.877  0.260  0.617  1.000
  H18  H1+  0.877  0.260  0.817  1.000
  H18  H1+  0.877  0.460  0.017  1.000
  H18  H1+  0.877  0.460  0.217  1.000
  H18  H1+  0.877  0.460  0.417  1.000
  H18  H1+  0.877  0.460  0.617  1.000
  H18  H1+  0.877  0.460  0.817  1.000
  H18  H1+  0.877  0.660  0.017  1.000
  H18  H1+  0.877  0.660  0.217  1.000
  H18  H1+  0.877  0.660  0.417  1.000
  H18  H1+  0.877  0.660  0.617  1.000
  H18  H1+  0.877  0.660  0.817  1.000
  H18  H1+  0.877  0.860  0.017  1.000
  H18  H1+  0.877  0.860  0.217  1.000
  H18  H1+  0.877  0.860  0.417  1.000
  H18  H1+  0.877  0.860  0.617  1.000
  H18  H1+  0.877  0.860  0.817  1.000
  H19  H1+  0.143  0.060  0.083  1.000
  H19  H1+  0.143  0.060  0.283  1.000
  H19  H1+  0.143  0.060  0.483  1.000
  H19  H1+  0.143  0.060  0.683  1.000
  H19  H1+  0.143  0.060  0.883  1.000
  H19  H1+  0.143  0.260  0.083  1.000
  H19  H1+  0.143  0.260  0.283  1.000
  H19  H1+  0.143  0.260  0.483  1.000
  H19  H1+  0.143  0.260  0.683  1.000
  H19  H1+  0.143  0.260  0.883  1.000
  H19  H1+  0.143  0.460  0.083  1.000
  H19  H1+  0.143  0.460  0.283  1.000
  H19  H1+  0.143  0.460  0.483  1.000
  H19  H1+  0.143  0.460  0.683  1.000
  H19  H1+  0.143  0.460  0.883  1.000
  H19  H1+  0.143  0.660  0.083  1.000
  H19  H1+  0.143  0.660  0.283  1.000
  H19  H1+  0.143  0.660  0.483  1.000
  H19  H1+  0.143  0.660  0.683  1.000
  H19  H1+  0.143  0.660  0.883  1.000
  H19  H1+  0.143  0.860  0.083  1.000
  H19  H1+  0.143  0.860  0.283  1.000
  H19  H1+  0.143  0.860  0.483  1.000
  H19  H1+  0.143  0.860  0.683  1.000
  H19  H1+  0.143  0.860  0.883  1.000
  H19  H1+  0.343  0.060  0.083  1.000
  H19  H1+  0.343  0.060  0.283  1.000
  H19  H1+  0.343  0.060  0.483  1.000
  H19  H1+  0.343  0.060  0.683  1.000
  H19  H1+  0.343  0.060  0.883  1.000
  H19  H1+  0.343  0.260  0.083  1.000
  H19  H1+  0.343  0.260  0.283  1.000
  H19  H1+  0.343  0.260  0.483  1.000
  H19  H1+  0.343  0.260  0.683  1.000
  H19  H1+  0.343  0.260  0.883  1.000
  H19  H1+  0.343  0.460  0.083  1.000
  H19  H1+  0.343  0.460  0.283  1.000
  H19  H1+  0.343  0.460  0.483  1.000
  H19  H1+  0.343  0.460  0.683  1.000
  H19  H1+  0.343  0.460  0.883  1.000
  H19  H1+  0.343  0.660  0.083  1.000
  H19  H1+  0.343  0.660  0.283  1.000
  H19  H1+  0.343  0.660  0.483  1.000
  H19  H1+  0.343  0.660  0.683  1.000
  H19  H1+  0.343  0.660  0.883  1.000
  H19  H1+  0.343  0.860  0.083  1.000
  H19  H1+  0.343  0.860  0.283  1.000
  H19  H1+  0.343  0.860  0.483  1.000
  H19  H1+  0.343  0.860  0.683  1.000
  H19  H1+  0.343  0.860  0.883  1.000
  H19  H1+  0.543  0.060  0.083  1.000
  H19  H1+  0.543  0.060  0.283  1.000
  H19  H1+  0.543  0.060  0.483  1.000
  H19  H1+  0.543  0.060  0.683  1.000
  H19  H1+  0.543  0.060  0.883  1.000
  H19  H1+  0.543  0.260  0.083  1.000
  H19  H1+  0.543  0.260  0.283  1.000
  H19  H1+  0.543  0.260  0.483  1.000
  H19  H1+  0.543  0.260  0.683  1.000
  H19  H1+  0.543  0.260  0.883  1.000
  H19  H1+  0.543  0.460  0.083  1.000
  H19  H1+  0.543  0.460  0.283  1.000
  H19  H1+  0.543  0.460  0.483  1.000
  H19  H1+  0.543  0.460  0.683  1.000
  H19  H1+  0.543  0.460  0.883  1.000
  H19  H1+  0.543  0.660  0.083  1.000
  H19  H1+  0.543  0.660  0.283  1.000
  H19  H1+  0.543  0.660  0.483  1.000
  H19  H1+  0.543  0.660  0.683  1.000
  H19  H1+  0.543  0.660  0.883  1.000
  H19  H1+  0.543  0.860  0.083  1.000
  H19  H1+  0.543  0.860  0.283  1.000
  H19  H1+  0.543  0.860  0.483  1.000
  H19  H1+  0.543  0.860  0.683  1.000
  H19  H1+  0.543  0.860  0.883  1.000
  H19  H1+  0.743  0.060  0.083  1.000
  H19  H1+  0.743  0.060  0.283  1.000
  H19  H1+  0.743  0.060  0.483  1.000
  H19  H1+  0.743  0.060  0.683  1.000
  H19  H1+  0.743  0.060  0.883  1.000
  H19  H1+  0.743  0.260  0.083  1.000
  H19  H1+  0.743  0.260  0.283  1.000
  H19  H1+  0.743  0.260  0.483  1.000
  H19  H1+  0.743  0.260  0.683  1.000
  H19  H1+  0.743  0.260  0.883  1.000
  H19  H1+  0.743  0.460  0.083  1.000
  H19  H1+  0.743  0.460  0.283  1.000
  H19  H1+  0.743  0.460  0.483  1.000
  H19  H1+  0.743  0.460  0.683  1.000
  H19  H1+  0.743  0.460  0.883  1.000
  H19  H1+  0.743  0.660  0.083  1.000
  H19  H1+  0.743  0.660  0.283  1.000
  H19  H1+  0.743  0.660  0.483  1.000
  H19  H1+  0.743  0.660  0.683  1.000
  H19  H1+  0.743  0.660  0.883  1.000
  H19  H1+  0.743  0.860  0.083  1.000
  H19  H1+  0.743  0.860  0.283  1.000
  H19  H1+  0.743  0.860  0.483  1.000
  H19  H1+  0.743  0.860  0.683  1.000
  H19  H1+  0.743  0.860  0.883  1.000
  H19  H1+  0.943  0.060  0.083  1.000
  H19  H1+  0.943  0.060  0.283  1.000
  H19  H1+  0.943  0.060  0.483  1.000
  H19  H1+  0.943  0.060  0.683  1.000
  H19  H1+  0.943  0.060  0.883  1.000
  H19  H1+  0.943  0.260  0.083  1.000
  H19  H1+  0.943  0.260  0.283  1.000
  H19  H1+  0.943  0.260  0.483  1.000
  H19  H1+  0.943  0.260  0.683  1.000
  H19  H1+  0.943  0.260  0.883  1.000
  H19  H1+  0.943  0.460  0.083  1.000
  H19  H1+  0.943  0.460  0.283  1.000
  H19  H1+  0.943  0.460  0.483  1.000
  H19  H1+  0.943  0.460  0.683  1.000
  H19  H1+  0.943  0.460  0.883  1.000
  H19  H1+  0.943  0.660  0.083  1.000
  H19  H1+  0.943  0.660  0.283  1.000
  H19  H1+  0.943  0.660  0.483  1.000
  H19  H1+  0.943  0.660  0.683  1.000
  H19  H1+  0.943  0.660  0.883  1.000
  H19  H1+  0.943  0.860  0.083  1.000
  H19  H1+  0.943  0.860  0.283  1.000
  H19  H1+  0.943  0.860  0.483  1.000
  H19  H1+  0.943  0.860  0.683  1.000
  H19  H1+  0.943  0.860  0.883  1.000
  H20  H1+  0.059  0.138  0.179  1.000
  H20  H1+  0.059  0.138  0.379  1.000
  H20  H1+  0.059  0.138  0.579  1.000
  H20  H1+  0.059  0.138  0.779  1.000
  H20  H1+  0.059  0.138  0.979  1.000
  H20  H1+  0.059  0.338  0.179  1.000
  H20  H1+  0.059  0.338  0.379  1.000
  H20  H1+  0.059  0.338  0.579  1.000
  H20  H1+  0.059  0.338  0.779  1.000
  H20  H1+  0.059  0.338  0.979  1.000
  H20  H1+  0.059  0.538  0.179  1.000
  H20  H1+  0.059  0.538  0.379  1.000
  H20  H1+  0.059  0.538  0.579  1.000
  H20  H1+  0.059  0.538  0.779  1.000
  H20  H1+  0.059  0.538  0.979  1.000
  H20  H1+  0.059  0.738  0.179  1.000
  H20  H1+  0.059  0.738  0.379  1.000
  H20  H1+  0.059  0.738  0.579  1.000
  H20  H1+  0.059  0.738  0.779  1.000
  H20  H1+  0.059  0.738  0.979  1.000
  H20  H1+  0.059  0.938  0.179  1.000
  H20  H1+  0.059  0.938  0.379  1.000
  H20  H1+  0.059  0.938  0.579  1.000
  H20  H1+  0.059  0.938  0.779  1.000
  H20  H1+  0.059  0.938  0.979  1.000
  H20  H1+  0.259  0.138  0.179  1.000
  H20  H1+  0.259  0.138  0.379  1.000
  H20  H1+  0.259  0.138  0.579  1.000
  H20  H1+  0.259  0.138  0.779  1.000
  H20  H1+  0.259  0.138  0.979  1.000
  H20  H1+  0.259  0.338  0.179  1.000
  H20  H1+  0.259  0.338  0.379  1.000
  H20  H1+  0.259  0.338  0.579  1.000
  H20  H1+  0.259  0.338  0.779  1.000
  H20  H1+  0.259  0.338  0.979  1.000
  H20  H1+  0.259  0.538  0.179  1.000
  H20  H1+  0.259  0.538  0.379  1.000
  H20  H1+  0.259  0.538  0.579  1.000
  H20  H1+  0.259  0.538  0.779  1.000
  H20  H1+  0.259  0.538  0.979  1.000
  H20  H1+  0.259  0.738  0.179  1.000
  H20  H1+  0.259  0.738  0.379  1.000
  H20  H1+  0.259  0.738  0.579  1.000
  H20  H1+  0.259  0.738  0.779  1.000
  H20  H1+  0.259  0.738  0.979  1.000
  H20  H1+  0.259  0.938  0.179  1.000
  H20  H1+  0.259  0.938  0.379  1.000
  H20  H1+  0.259  0.938  0.579  1.000
  H20  H1+  0.259  0.938  0.779  1.000
  H20  H1+  0.259  0.938  0.979  1.000
  H20  H1+  0.459  0.138  0.179  1.000
  H20  H1+  0.459  0.138  0.379  1.000
  H20  H1+  0.459  0.138  0.579  1.000
  H20  H1+  0.459  0.138  0.779  1.000
  H20  H1+  0.459  0.138  0.979  1.000
  H20  H1+  0.459  0.338  0.179  1.000
  H20  H1+  0.459  0.338  0.379  1.000
  H20  H1+  0.459  0.338  0.579  1.000
  H20  H1+  0.459  0.338  0.779  1.000
  H20  H1+  0.459  0.338  0.979  1.000
  H20  H1+  0.459  0.538  0.179  1.000
  H20  H1+  0.459  0.538  0.379  1.000
  H20  H1+  0.459  0.538  0.579  1.000
  H20  H1+  0.459  0.538  0.779  1.000
  H20  H1+  0.459  0.538  0.979  1.000
  H20  H1+  0.459  0.738  0.179  1.000
  H20  H1+  0.459  0.738  0.379  1.000
  H20  H1+  0.459  0.738  0.579  1.000
  H20  H1+  0.459  0.738  0.779  1.000
  H20  H1+  0.459  0.738  0.979  1.000
  H20  H1+  0.459  0.938  0.179  1.000
  H20  H1+  0.459  0.938  0.379  1.000
  H20  H1+  0.459  0.938  0.579  1.000
  H20  H1+  0.459  0.938  0.779  1.000
  H20  H1+  0.459  0.938  0.979  1.000
  H20  H1+  0.659  0.138  0.179  1.000
  H20  H1+  0.659  0.138  0.379  1.000
  H20  H1+  0.659  0.138  0.579  1.000
  H20  H1+  0.659  0.138  0.779  1.000
  H20  H1+  0.659  0.138  0.979  1.000
  H20  H1+  0.659  0.338  0.179  1.000
  H20  H1+  0.659  0.338  0.379  1.000
  H20  H1+  0.659  0.338  0.579  1.000
  H20  H1+  0.659  0.338  0.779  1.000
  H20  H1+  0.659  0.338  0.979  1.000
  H20  H1+  0.659  0.538  0.179  1.000
  H20  H1+  0.659  0.538  0.379  1.000
  H20  H1+  0.659  0.538  0.579  1.000
  H20  H1+  0.659  0.538  0.779  1.000
  H20  H1+  0.659  0.538  0.979  1.000
  H20  H1+  0.659  0.738  0.179  1.000
  H20  H1+  0.659  0.738  0.379  1.000
  H20  H1+  0.659  0.738  0.579  1.000
  H20  H1+  0.659  0.738  0.779  1.000
  H20  H1+  0.659  0.738  0.979  1.000
  H20  H1+  0.659  0.938  0.179  1.000
  H20  H1+  0.659  0.938  0.379  1.000
  H20  H1+  0.659  0.938  0.579  1.000
  H20  H1+  0.659  0.938  0.779  1.000
  H20  H1+  0.659  0.938  0.979  1.000
  H20  H1+  0.859  0.138  0.179  1.000
  H20  H1+  0.859  0.138  0.379  1.000
  H20  H1+  0.859  0.138  0.579  1.000
  H20  H1+  0.859  0.138  0.779  1.000
  H20  H1+  0.859  0.138  0.979  1.000
  H20  H1+  0.859  0.338  0.179  1.000
  H20  H1+  0.859  0.338  0.379  1.000
  H20  H1+  0.859  0.338  0.579  1.000
  H20  H1+  0.859  0.338  0.779  1.000
  H20  H1+  0.859  0.338  0.979  1.000
  H20  H1+  0.859  0.538  0.179  1.000
  H20  H1+  0.859  0.538  0.379  1.000
  H20  H1+  0.859  0.538  0.579  1.000
  H20  H1+  0.859  0.538  0.779  1.000
  H20  H1+  0.859  0.538  0.979  1.000
  H20  H1+  0.859  0.738  0.179  1.000
  H20  H1+  0.859  0.738  0.379  1.000
  H20  H1+  0.859  0.738  0.579  1.000
  H20  H1+  0.859  0.738  0.779  1.000
  H20  H1+  0.859  0.738  0.979  1.000
  H20  H1+  0.859  0.938  0.179  1.000
  H20  H1+  0.859  0.938  0.379  1.000
  H20  H1+  0.859  0.938  0.579  1.000
  H20  H1+  0.859  0.938  0.779  1.000
  H20  H1+  0.859  0.938  0.979  1.000
  H21  H1+  0.060  0.083  0.123  1.000
  H21  H1+  0.060  0.083  0.323  1.000
  H21  H1+  0.060  0.083  0.523  1.000
  H21  H1+  0.060  0.083  0.723  1.000
  H21  H1+  0.060  0.083  0.923  1.000
  H21  H1+  0.060  0.283  0.123  1.000
  H21  H1+  0.060  0.283  0.323  1.000
  H21  H1+  0.060  0.283  0.523  1.000
  H21  H1+  0.060  0.283  0.723  1.000
  H21  H1+  0.060  0.283  0.923  1.000
  H21  H1+  0.060  0.483  0.123  1.000
  H21  H1+  0.060  0.483  0.323  1.000
  H21  H1+  0.060  0.483  0.523  1.000
  H21  H1+  0.060  0.483  0.723  1.000
  H21  H1+  0.060  0.483  0.923  1.000
  H21  H1+  0.060  0.683  0.123  1.000
  H21  H1+  0.060  0.683  0.323  1.000
  H21  H1+  0.060  0.683  0.523  1.000
  H21  H1+  0.060  0.683  0.723  1.000
  H21  H1+  0.060  0.683  0.923  1.000
  H21  H1+  0.060  0.883  0.123  1.000
  H21  H1+  0.060  0.883  0.323  1.000
  H21  H1+  0.060  0.883  0.523  1.000
  H21  H1+  0.060  0.883  0.723  1.000
  H21  H1+  0.060  0.883  0.923  1.000
  H21  H1+  0.260  0.083  0.123  1.000
  H21  H1+  0.260  0.083  0.323  1.000
  H21  H1+  0.260  0.083  0.523  1.000
  H21  H1+  0.260  0.083  0.723  1.000
  H21  H1+  0.260  0.083  0.923  1.000
  H21  H1+  0.260  0.283  0.123  1.000
  H21  H1+  0.260  0.283  0.323  1.000
  H21  H1+  0.260  0.283  0.523  1.000
  H21  H1+  0.260  0.283  0.723  1.000
  H21  H1+  0.260  0.283  0.923  1.000
  H21  H1+  0.260  0.483  0.123  1.000
  H21  H1+  0.260  0.483  0.323  1.000
  H21  H1+  0.260  0.483  0.523  1.000
  H21  H1+  0.260  0.483  0.723  1.000
  H21  H1+  0.260  0.483  0.923  1.000
  H21  H1+  0.260  0.683  0.123  1.000
  H21  H1+  0.260  0.683  0.323  1.000
  H21  H1+  0.260  0.683  0.523  1.000
  H21  H1+  0.260  0.683  0.723  1.000
  H21  H1+  0.260  0.683  0.923  1.000
  H21  H1+  0.260  0.883  0.123  1.000
  H21  H1+  0.260  0.883  0.323  1.000
  H21  H1+  0.260  0.883  0.523  1.000
  H21  H1+  0.260  0.883  0.723  1.000
  H21  H1+  0.260  0.883  0.923  1.000
  H21  H1+  0.460  0.083  0.123  1.000
  H21  H1+  0.460  0.083  0.323  1.000
  H21  H1+  0.460  0.083  0.523  1.000
  H21  H1+  0.460  0.083  0.723  1.000
  H21  H1+  0.460  0.083  0.923  1.000
  H21  H1+  0.460  0.283  0.123  1.000
  H21  H1+  0.460  0.283  0.323  1.000
  H21  H1+  0.460  0.283  0.523  1.000
  H21  H1+  0.460  0.283  0.723  1.000
  H21  H1+  0.460  0.283  0.923  1.000
  H21  H1+  0.460  0.483  0.123  1.000
  H21  H1+  0.460  0.483  0.323  1.000
  H21  H1+  0.460  0.483  0.523  1.000
  H21  H1+  0.460  0.483  0.723  1.000
  H21  H1+  0.460  0.483  0.923  1.000
  H21  H1+  0.460  0.683  0.123  1.000
  H21  H1+  0.460  0.683  0.323  1.000
  H21  H1+  0.460  0.683  0.523  1.000
  H21  H1+  0.460  0.683  0.723  1.000
  H21  H1+  0.460  0.683  0.923  1.000
  H21  H1+  0.460  0.883  0.123  1.000
  H21  H1+  0.460  0.883  0.323  1.000
  H21  H1+  0.460  0.883  0.523  1.000
  H21  H1+  0.460  0.883  0.723  1.000
  H21  H1+  0.460  0.883  0.923  1.000
  H21  H1+  0.660  0.083  0.123  1.000
  H21  H1+  0.660  0.083  0.323  1.000
  H21  H1+  0.660  0.083  0.523  1.000
  H21  H1+  0.660  0.083  0.723  1.000
  H21  H1+  0.660  0.083  0.923  1.000
  H21  H1+  0.660  0.283  0.123  1.000
  H21  H1+  0.660  0.283  0.323  1.000
  H21  H1+  0.660  0.283  0.523  1.000
  H21  H1+  0.660  0.283  0.723  1.000
  H21  H1+  0.660  0.283  0.923  1.000
  H21  H1+  0.660  0.483  0.123  1.000
  H21  H1+  0.660  0.483  0.323  1.000
  H21  H1+  0.660  0.483  0.523  1.000
  H21  H1+  0.660  0.483  0.723  1.000
  H21  H1+  0.660  0.483  0.923  1.000
  H21  H1+  0.660  0.683  0.123  1.000
  H21  H1+  0.660  0.683  0.323  1.000
  H21  H1+  0.660  0.683  0.523  1.000
  H21  H1+  0.660  0.683  0.723  1.000
  H21  H1+  0.660  0.683  0.923  1.000
  H21  H1+  0.660  0.883  0.123  1.000
  H21  H1+  0.660  0.883  0.323  1.000
  H21  H1+  0.660  0.883  0.523  1.000
  H21  H1+  0.660  0.883  0.723  1.000
  H21  H1+  0.660  0.883  0.923  1.000
  H21  H1+  0.860  0.083  0.123  1.000
  H21  H1+  0.860  0.083  0.323  1.000
  H21  H1+  0.860  0.083  0.523  1.000
  H21  H1+  0.860  0.083  0.723  1.000
  H21  H1+  0.860  0.083  0.923  1.000
  H21  H1+  0.860  0.283  0.123  1.000
  H21  H1+  0.860  0.283  0.323  1.000
  H21  H1+  0.860  0.283  0.523  1.000
  H21  H1+  0.860  0.283  0.723  1.000
  H21  H1+  0.860  0.283  0.923  1.000
  H21  H1+  0.860  0.483  0.123  1.000
  H21  H1+  0.860  0.483  0.323  1.000
  H21  H1+  0.860  0.483  0.523  1.000
  H21  H1+  0.860  0.483  0.723  1.000
  H21  H1+  0.860  0.483  0.923  1.000
  H21  H1+  0.860  0.683  0.123  1.000
  H21  H1+  0.860  0.683  0.323  1.000
  H21  H1+  0.860  0.683  0.523  1.000
  H21  H1+  0.860  0.683  0.723  1.000
  H21  H1+  0.860  0.683  0.923  1.000
  H21  H1+  0.860  0.883  0.123  1.000
  H21  H1+  0.860  0.883  0.323  1.000
  H21  H1+  0.860  0.883  0.523  1.000
  H21  H1+  0.860  0.883  0.723  1.000
  H21  H1+  0.860  0.883  0.923  1.000
  H22  H1+  0.123  0.140  0.183  1.000
  H22  H1+  0.123  0.140  0.383  1.000
  H22  H1+  0.123  0.140  0.583  1.000
  H22  H1+  0.123  0.140  0.783  1.000
  H22  H1+  0.123  0.140  0.983  1.000
  H22  H1+  0.123  0.340  0.183  1.000
  H22  H1+  0.123  0.340  0.383  1.000
  H22  H1+  0.123  0.340  0.583  1.000
  H22  H1+  0.123  0.340  0.783  1.000
  H22  H1+  0.123  0.340  0.983  1.000
  H22  H1+  0.123  0.540  0.183  1.000
  H22  H1+  0.123  0.540  0.383  1.000
  H22  H1+  0.123  0.540  0.583  1.000
  H22  H1+  0.123  0.540  0.783  1.000
  H22  H1+  0.123  0.540  0.983  1.000
  H22  H1+  0.123  0.740  0.183  1.000
  H22  H1+  0.123  0.740  0.383  1.000
  H22  H1+  0.123  0.740  0.583  1.000
  H22  H1+  0.123  0.740  0.783  1.000
  H22  H1+  0.123  0.740  0.983  1.000
  H22  H1+  0.123  0.940  0.183  1.000
  H22  H1+  0.123  0.940  0.383  1.000
  H22  H1+  0.123  0.940  0.583  1.000
  H22  H1+  0.123  0.940  0.783  1.000
  H22  H1+  0.123  0.940  0.983  1.000
  H22  H1+  0.323  0.140  0.183  1.000
  H22  H1+  0.323  0.140  0.383  1.000
  H22  H1+  0.323  0.140  0.583  1.000
  H22  H1+  0.323  0.140  0.783  1.000
  H22  H1+  0.323  0.140  0.983  1.000
  H22  H1+  0.323  0.340  0.183  1.000
  H22  H1+  0.323  0.340  0.383  1.000
  H22  H1+  0.323  0.340  0.583  1.000
  H22  H1+  0.323  0.340  0.783  1.000
  H22  H1+  0.323  0.340  0.983  1.000
  H22  H1+  0.323  0.540  0.183  1.000
  H22  H1+  0.323  0.540  0.383  1.000
  H22  H1+  0.323  0.540  0.583  1.000
  H22  H1+  0.323  0.540  0.783  1.000
  H22  H1+  0.323  0.540  0.983  1.000
  H22  H1+  0.323  0.740  0.183  1.000
  H22  H1+  0.323  0.740  0.383  1.000
  H22  H1+  0.323  0.740  0.583  1.000
  H22  H1+  0.323  0.740  0.783  1.000
  H22  H1+  0.323  0.740  0.983  1.000
  H22  H1+  0.323  0.940  0.183  1.000
  H22  H1+  0.323  0.940  0.383  1.000
  H22  H1+  0.323  0.940  0.583  1.000
  H22  H1+  0.323  0.940  0.783  1.000
  H22  H1+  0.323  0.940  0.983  1.000
  H22  H1+  0.523  0.140  0.183  1.000
  H22  H1+  0.523  0.140  0.383  1.000
  H22  H1+  0.523  0.140  0.583  1.000
  H22  H1+  0.523  0.140  0.783  1.000
  H22  H1+  0.523  0.140  0.983  1.000
  H22  H1+  0.523  0.340  0.183  1.000
  H22  H1+  0.523  0.340  0.383  1.000
  H22  H1+  0.523  0.340  0.583  1.000
  H22  H1+  0.523  0.340  0.783  1.000
  H22  H1+  0.523  0.340  0.983  1.000
  H22  H1+  0.523  0.540  0.183  1.000
  H22  H1+  0.523  0.540  0.383  1.000
  H22  H1+  0.523  0.540  0.583  1.000
  H22  H1+  0.523  0.540  0.783  1.000
  H22  H1+  0.523  0.540  0.983  1.000
  H22  H1+  0.523  0.740  0.183  1.000
  H22  H1+  0.523  0.740  0.383  1.000
  H22  H1+  0.523  0.740  0.583  1.000
  H22  H1+  0.523  0.740  0.783  1.000
  H22  H1+  0.523  0.740  0.983  1.000
  H22  H1+  0.523  0.940  0.183  1.000
  H22  H1+  0.523  0.940  0.383  1.000
  H22  H1+  0.523  0.940  0.583  1.000
  H22  H1+  0.523  0.940  0.783  1.000
  H22  H1+  0.523  0.940  0.983  1.000
  H22  H1+  0.723  0.140  0.183  1.000
  H22  H1+  0.723  0.140  0.383  1.000
  H22  H1+  0.723  0.140  0.583  1.000
  H22  H1+  0.723  0.140  0.783  1.000
  H22  H1+  0.723  0.140  0.983  1.000
  H22  H1+  0.723  0.340  0.183  1.000
  H22  H1+  0.723  0.340  0.383  1.000
  H22  H1+  0.723  0.340  0.583  1.000
  H22  H1+  0.723  0.340  0.783  1.000
  H22  H1+  0.723  0.340  0.983  1.000
  H22  H1+  0.723  0.540  0.183  1.000
  H22  H1+  0.723  0.540  0.383  1.000
  H22  H1+  0.723  0.540  0.583  1.000
  H22  H1+  0.723  0.540  0.783  1.000
  H22  H1+  0.723  0.540  0.983  1.000
  H22  H1+  0.723  0.740  0.183  1.000
  H22  H1+  0.723  0.740  0.383  1.000
  H22  H1+  0.723  0.740  0.583  1.000
  H22  H1+  0.723  0.740  0.783  1.000
  H22  H1+  0.723  0.740  0.983  1.000
  H22  H1+  0.723  0.940  0.183  1.000
  H22  H1+  0.723  0.940  0.383  1.000
  H22  H1+  0.723  0.940  0.583  1.000
  H22  H1+  0.723  0.940  0.783  1.000
  H22  H1+  0.723  0.940  0.983  1.000
  H22  H1+  0.923  0.140  0.183  1.000
  H22  H1+  0.923  0.140  0.383  1.000
  H22  H1+  0.923  0.140  0.583  1.000
  H22  H1+  0.923  0.140  0.783  1.000
  H22  H1+  0.923  0.140  0.983  1.000
  H22  H1+  0.923  0.340  0.183  1.000
  H22  H1+  0.923  0.340  0.383  1.000
  H22  H1+  0.923  0.340  0.583  1.000
  H22  H1+  0.923  0.340  0.783  1.000
  H22  H1+  0.923  0.340  0.983  1.000
  H22  H1+  0.923  0.540  0.183  1.000
  H22  H1+  0.923  0.540  0.383  1.000
  H22  H1+  0.923  0.540  0.583  1.000
  H22  H1+  0.923  0.540  0.783  1.000
  H22  H1+  0.923  0.540  0.983  1.000
  H22  H1+  0.923  0.740  0.183  1.000
  H22  H1+  0.923  0.740  0.383  1.000
  H22  H1+  0.923  0.740  0.583  1.000
  H22  H1+  0.923  0.740  0.783  1.000
  H22  H1+  0.923  0.740  0.983  1.000
  H22  H1+  0.923  0.940  0.183  1.000
  H22  H1+  0.923  0.940  0.383  1.000
  H22  H1+  0.923  0.940  0.583  1.000
  H22  H1+  0.923  0.940  0.783  1.000
  H22  H1+  0.923  0.940  0.983  1.000
  H23  H1+  0.057  0.140  0.117  1.000
  H23  H1+  0.057  0.140  0.317  1.000
  H23  H1+  0.057  0.140  0.517  1.000
  H23  H1+  0.057  0.140  0.717  1.000
  H23  H1+  0.057  0.140  0.917  1.000
  H23  H1+  0.057  0.340  0.117  1.000
  H23  H1+  0.057  0.340  0.317  1.000
  H23  H1+  0.057  0.340  0.517  1.000
  H23  H1+  0.057  0.340  0.717  1.000
  H23  H1+  0.057  0.340  0.917  1.000
  H23  H1+  0.057  0.540  0.117  1.000
  H23  H1+  0.057  0.540  0.317  1.000
  H23  H1+  0.057  0.540  0.517  1.000
  H23  H1+  0.057  0.540  0.717  1.000
  H23  H1+  0.057  0.540  0.917  1.000
  H23  H1+  0.057  0.740  0.117  1.000
  H23  H1+  0.057  0.740  0.317  1.000
  H23  H1+  0.057  0.740  0.517  1.000
  H23  H1+  0.057  0.740  0.717  1.000
  H23  H1+  0.057  0.740  0.917  1.000
  H23  H1+  0.057  0.940  0.117  1.000
  H23  H1+  0.057  0.940  0.317  1.000
  H23  H1+  0.057  0.940  0.517  1.000
  H23  H1+  0.057  0.940  0.717  1.000
  H23  H1+  0.057  0.940  0.917  1.000
  H23  H1+  0.257  0.140  0.117  1.000
  H23  H1+  0.257  0.140  0.317  1.000
  H23  H1+  0.257  0.140  0.517  1.000
  H23  H1+  0.257  0.140  0.717  1.000
  H23  H1+  0.257  0.140  0.917  1.000
  H23  H1+  0.257  0.340  0.117  1.000
  H23  H1+  0.257  0.340  0.317  1.000
  H23  H1+  0.257  0.340  0.517  1.000
  H23  H1+  0.257  0.340  0.717  1.000
  H23  H1+  0.257  0.340  0.917  1.000
  H23  H1+  0.257  0.540  0.117  1.000
  H23  H1+  0.257  0.540  0.317  1.000
  H23  H1+  0.257  0.540  0.517  1.000
  H23  H1+  0.257  0.540  0.717  1.000
  H23  H1+  0.257  0.540  0.917  1.000
  H23  H1+  0.257  0.740  0.117  1.000
  H23  H1+  0.257  0.740  0.317  1.000
  H23  H1+  0.257  0.740  0.517  1.000
  H23  H1+  0.257  0.740  0.717  1.000
  H23  H1+  0.257  0.740  0.917  1.000
  H23  H1+  0.257  0.940  0.117  1.000
  H23  H1+  0.257  0.940  0.317  1.000
  H23  H1+  0.257  0.940  0.517  1.000
  H23  H1+  0.257  0.940  0.717  1.000
  H23  H1+  0.257  0.940  0.917  1.000
  H23  H1+  0.457  0.140  0.117  1.000
  H23  H1+  0.457  0.140  0.317  1.000
  H23  H1+  0.457  0.140  0.517  1.000
  H23  H1+  0.457  0.140  0.717  1.000
  H23  H1+  0.457  0.140  0.917  1.000
  H23  H1+  0.457  0.340  0.117  1.000
  H23  H1+  0.457  0.340  0.317  1.000
  H23  H1+  0.457  0.340  0.517  1.000
  H23  H1+  0.457  0.340  0.717  1.000
  H23  H1+  0.457  0.340  0.917  1.000
  H23  H1+  0.457  0.540  0.117  1.000
  H23  H1+  0.457  0.540  0.317  1.000
  H23  H1+  0.457  0.540  0.517  1.000
  H23  H1+  0.457  0.540  0.717  1.000
  H23  H1+  0.457  0.540  0.917  1.000
  H23  H1+  0.457  0.740  0.117  1.000
  H23  H1+  0.457  0.740  0.317  1.000
  H23  H1+  0.457  0.740  0.517  1.000
  H23  H1+  0.457  0.740  0.717  1.000
  H23  H1+  0.457  0.740  0.917  1.000
  H23  H1+  0.457  0.940  0.117  1.000
  H23  H1+  0.457  0.940  0.317  1.000
  H23  H1+  0.457  0.940  0.517  1.000
  H23  H1+  0.457  0.940  0.717  1.000
  H23  H1+  0.457  0.940  0.917  1.000
  H23  H1+  0.657  0.140  0.117  1.000
  H23  H1+  0.657  0.140  0.317  1.000
  H23  H1+  0.657  0.140  0.517  1.000
  H23  H1+  0.657  0.140  0.717  1.000
  H23  H1+  0.657  0.140  0.917  1.000
  H23  H1+  0.657  0.340  0.117  1.000
  H23  H1+  0.657  0.340  0.317  1.000
  H23  H1+  0.657  0.340  0.517  1.000
  H23  H1+  0.657  0.340  0.717  1.000
  H23  H1+  0.657  0.340  0.917  1.000
  H23  H1+  0.657  0.540  0.117  1.000
  H23  H1+  0.657  0.540  0.317  1.000
  H23  H1+  0.657  0.540  0.517  1.000
  H23  H1+  0.657  0.540  0.717  1.000
  H23  H1+  0.657  0.540  0.917  1.000
  H23  H1+  0.657  0.740  0.117  1.000
  H23  H1+  0.657  0.740  0.317  1.000
  H23  H1+  0.657  0.740  0.517  1.000
  H23  H1+  0.657  0.740  0.717  1.000
  H23  H1+  0.657  0.740  0.917  1.000
  H23  H1+  0.657  0.940  0.117  1.000
  H23  H1+  0.657  0.940  0.317  1.000
  H23  H1+  0.657  0.940  0.517  1.000
  H23  H1+  0.657  0.940  0.717  1.000
  H23  H1+  0.657  0.940  0.917  1.000
  H23  H1+  0.857  0.140  0.117  1.000
  H23  H1+  0.857  0.140  0.317  1.000
  H23  H1+  0.857  0.140  0.517  1.000
  H23  H1+  0.857  0.140  0.717  1.000
  H23  H1+  0.857  0.140  0.917  1.000
  H23  H1+  0.857  0.340  0.117  1.000
  H23  H1+  0.857  0.340  0.317  1.000
  H23  H1+  0.857  0.340  0.517  1.000
  H23  H1+  0.857  0.340  0.717  1.000
  H23  H1+  0.857  0.340  0.917  1.000
  H23  H1+  0.857  0.540  0.117  1.000
  H23  H1+  0.857  0.540  0.317  1.000
  H23  H1+  0.857  0.540  0.517  1.000
  H23  H1+  0.857  0.540  0.717  1.000
  H23  H1+  0.857  0.540  0.917  1.000
  H23  H1+  0.857  0.740  0.117  1.000
  H23  H1+  0.857  0.740  0.317  1.000
  H23  H1+  0.857  0.740  0.517  1.000
  H23  H1+  0.857  0.740  0.717  1.000
  H23  H1+  0.857  0.740  0.917  1.000
  H23  H1+  0.857  0.940  0.117  1.000
  H23  H1+  0.857  0.940  0.317  1.000
  H23  H1+  0.857  0.940  0.517  1.000
  H23  H1+  0.857  0.940  0.717  1.000
  H23  H1+  0.857  0.940  0.917  1.000
  Li6  Li1+  0.000  0.000  0.000  0.000
  Li12  Li1+  0.100  -0.000  0.100  0.000
  Li21  Li1+  0.117  -0.000  0.003  0.000
  Li24  Li1+  0.131  0.114  0.019  0.000
  Li32  Li1+  -0.000  -0.000  0.200  0.000
  Li38  Li1+  0.100  -0.000  0.300  0.000
  Li42  Li1+  0.083  -0.000  0.397  0.000
  Li47  Li1+  0.117  -0.000  0.203  0.000
  Li58  Li1+  -0.000  -0.000  0.400  0.000
  Li64  Li1+  0.100  -0.000  0.500  0.000
  Li70  Li1+  0.097  0.114  0.497  0.000
  Li84  Li1+  -0.000  -0.000  0.600  0.000
  Li90  Li1+  0.100  -0.000  0.700  0.000
  Li102  Li1+  0.131  0.114  0.619  0.000
  Li110  Li1+  -0.000  -0.000  0.800  0.000
  Li116  Li1+  0.100  -0.000  0.900  0.000
  Li136  Li1+  -0.000  0.200  0.000  0.000
  Li146  Li1+  0.083  0.200  0.197  0.000
  Li148  Li1+  0.097  0.314  0.097  0.000
  Li151  Li1+  0.117  0.200  0.003  0.000
  Li168  Li1+  0.100  0.200  0.300  0.000
  Li172  Li1+  0.083  0.200  0.397  0.000
  Li180  Li1+  0.131  0.314  0.219  0.000
  Li188  Li1+  -0.000  0.200  0.400  0.000
  Li194  Li1+  0.100  0.200  0.500  0.000
  Li200  Li1+  0.097  0.314  0.497  0.000
  Li229  Li1+  0.117  0.200  0.603  0.000
  Li240  Li1+  -0.000  0.200  0.800  0.000
  Li246  Li1+  0.100  0.200  0.900  0.000
  Li258  Li1+  0.131  0.314  0.819  0.000
  Li266  Li1+  -0.000  0.400  0.000  0.000
  Li272  Li1+  0.100  0.400  0.100  0.000
  Li276  Li1+  0.083  0.400  0.197  0.000
  Li284  Li1+  0.131  0.514  0.019  0.000
  Li292  Li1+  -0.000  0.400  0.200  0.000
  Li298  Li1+  0.100  0.400  0.300  0.000
  Li302  Li1+  0.083  0.400  0.397  0.000
  Li303  Li1+  0.103  0.486  0.303  0.000
  Li307  Li1+  0.117  0.400  0.203  0.000
  Li318  Li1+  -0.000  0.400  0.400  0.000
  Li321  Li1+  0.100  0.500  0.400  0.000
  Li324  Li1+  0.100  0.400  0.500  0.000
  Li328  Li1+  0.083  0.400  0.597  0.000
  Li330  Li1+  0.097  0.514  0.497  0.000
  Li336  Li1+  0.131  0.514  0.419  0.000
  Li344  Li1+  -0.000  0.400  0.600  0.000
  Li350  Li1+  0.100  0.400  0.700  0.000
  Li370  Li1+  -0.000  0.400  0.800  0.000
  Li388  Li1+  0.131  0.514  0.819  0.000
  Li391  Li1+  -0.000  0.700  0.100  0.000
  Li396  Li1+  -0.000  0.600  0.000  0.000
  Li397  Li1+  -0.000  0.700  0.000  0.000
  Li402  Li1+  0.100  0.600  0.100  0.000
  Li408  Li1+  0.097  0.714  0.097  0.000
  Li414  Li1+  0.131  0.714  0.019  0.000
  Li422  Li1+  -0.000  0.600  0.200  0.000
  Li423  Li1+  -0.000  0.700  0.200  0.000
  Li428  Li1+  0.100  0.600  0.300  0.000
  Li433  Li1+  0.103  0.686  0.303  0.000
  Li434  Li1+  0.097  0.714  0.297  0.000
  Li448  Li1+  -0.000  0.600  0.400  0.000
  Li454  Li1+  0.100  0.600  0.500  0.000
  Li456  Li1+  0.069  0.689  0.583  0.000
  Li458  Li1+  0.083  0.600  0.597  0.000
  Li463  Li1+  0.117  0.600  0.403  0.000
  Li466  Li1+  0.131  0.714  0.419  0.000
  Li474  Li1+  -0.000  0.600  0.600  0.000
  Li480  Li1+  0.100  0.600  0.700  0.000
  Li482  Li1+  0.069  0.689  0.783  0.000
  Li484  Li1+  0.083  0.600  0.797  0.000
  Li489  Li1+  0.117  0.600  0.603  0.000
  Li500  Li1+  -0.000  0.600  0.800  0.000
  Li508  Li1+  0.069  0.689  0.983  0.000
  Li512  Li1+  0.097  0.714  0.897  0.000
  Li515  Li1+  0.117  0.600  0.803  0.000
  Li526  Li1+  -0.000  0.800  0.000  0.000
  Li532  Li1+  0.100  0.800  0.100  0.000
  Li536  Li1+  0.083  0.800  0.197  0.000
  Li541  Li1+  0.117  0.800  0.003  0.000
  Li547  Li1+  -0.000  0.900  0.300  0.000
  Li552  Li1+  -0.000  0.800  0.200  0.000
  Li560  Li1+  0.069  0.889  0.383  0.000
  Li562  Li1+  0.083  0.800  0.397  0.000
  Li564  Li1+  0.097  0.914  0.297  0.000
  Li567  Li1+  0.117  0.800  0.203  0.000
  Li584  Li1+  0.100  0.800  0.500  0.000
  Li586  Li1+  0.069  0.889  0.583  0.000
  Li610  Li1+  0.100  0.800  0.700  0.000
  Li612  Li1+  0.069  0.889  0.783  0.000
  Li614  Li1+  0.083  0.800  0.797  0.000
  Li622  Li1+  0.131  0.914  0.619  0.000
  Li630  Li1+  -0.000  0.800  0.800  0.000
  Li636  Li1+  0.100  0.800  0.900  0.000
  Li642  Li1+  0.097  0.914  0.897  0.000
  Li682  Li1+  0.200  -0.000  0.200  0.000
  Li690  Li1+  0.269  0.089  0.383  0.000
  Li708  Li1+  0.200  -0.000  0.400  0.000
  Li720  Li1+  0.297  0.114  0.497  0.000
  Li740  Li1+  0.300  -0.000  0.700  0.000
  Li745  Li1+  0.303  0.086  0.703  0.000
  Li760  Li1+  0.200  -0.000  0.800  0.000
  Li766  Li1+  0.300  -0.000  0.900  0.000
  Li772  Li1+  0.297  0.114  0.897  0.000
  Li786  Li1+  0.200  0.200  0.000  0.000
  Li792  Li1+  0.300  0.200  0.100  0.000
  Li794  Li1+  0.269  0.289  0.183  0.000
  Li796  Li1+  0.283  0.200  0.197  0.000
  Li798  Li1+  0.297  0.314  0.097  0.000
  Li812  Li1+  0.200  0.200  0.200  0.000
  Li818  Li1+  0.300  0.200  0.300  0.000
  Li822  Li1+  0.283  0.200  0.397  0.000
  Li824  Li1+  0.297  0.314  0.297  0.000
  Li827  Li1+  0.317  0.200  0.203  0.000
  Li838  Li1+  0.200  0.200  0.400  0.000
  Li850  Li1+  0.297  0.314  0.497  0.000
  Li864  Li1+  0.200  0.200  0.600  0.000
  Li870  Li1+  0.300  0.200  0.700  0.000
  Li872  Li1+  0.269  0.289  0.783  0.000
  Li874  Li1+  0.283  0.200  0.797  0.000
  Li882  Li1+  0.331  0.314  0.619  0.000
  Li890  Li1+  0.200  0.200  0.800  0.000
  Li896  Li1+  0.300  0.200  0.900  0.000
  Li902  Li1+  0.297  0.314  0.897  0.000
  Li916  Li1+  0.200  0.400  0.000  0.000
  Li922  Li1+  0.300  0.400  0.100  0.000
  Li926  Li1+  0.283  0.400  0.197  0.000
  Li928  Li1+  0.297  0.514  0.097  0.000
  Li942  Li1+  0.200  0.400  0.200  0.000
  Li950  Li1+  0.269  0.489  0.383  0.000
  Li952  Li1+  0.283  0.400  0.397  0.000
  Li968  Li1+  0.200  0.400  0.400  0.000
  Li969  Li1+  0.200  0.500  0.400  0.000
  Li974  Li1+  0.300  0.400  0.500  0.000
  Li994  Li1+  0.200  0.400  0.600  0.000
  Li1000  Li1+  0.300  0.400  0.700  0.000
  Li1002  Li1+  0.269  0.489  0.783  0.000
  Li1004  Li1+  0.283  0.400  0.797  0.000
  Li1005  Li1+  0.303  0.486  0.703  0.000
  Li1009  Li1+  0.317  0.400  0.603  0.000
  Li1020  Li1+  0.200  0.400  0.800  0.000
  Li1021  Li1+  0.200  0.500  0.800  0.000
  Li1023  Li1+  0.300  0.500  0.800  0.000
  Li1028  Li1+  0.269  0.489  0.983  0.000
  Li1032  Li1+  0.297  0.514  0.897  0.000
  Li1046  Li1+  0.200  0.600  0.000  0.000
  Li1052  Li1+  0.300  0.600  0.100  0.000
  Li1056  Li1+  0.283  0.600  0.197  0.000
  Li1058  Li1+  0.297  0.714  0.097  0.000
  Li1072  Li1+  0.200  0.600  0.200  0.000
  Li1078  Li1+  0.300  0.600  0.300  0.000
  Li1080  Li1+  0.269  0.689  0.383  0.000
  Li1094  Li1+  0.200  0.600  0.500  0.000
  Li1106  Li1+  0.269  0.689  0.583  0.000
  Li1110  Li1+  0.297  0.714  0.497  0.000
  Li1116  Li1+  0.331  0.714  0.419  0.000
  Li1124  Li1+  0.200  0.600  0.600  0.000
  Li1127  Li1+  0.300  0.700  0.600  0.000
  Li1130  Li1+  0.300  0.600  0.700  0.000
  Li1136  Li1+  0.297  0.714  0.697  0.000
  Li1150  Li1+  0.200  0.600  0.800  0.000
  Li1156  Li1+  0.300  0.600  0.900  0.000
  Li1160  Li1+  0.283  0.600  0.997  0.000
  Li1161  Li1+  0.303  0.686  0.903  0.000
  Li1165  Li1+  0.317  0.600  0.803  0.000
  Li1182  Li1+  0.300  0.800  0.100  0.000
  Li1186  Li1+  0.283  0.800  0.197  0.000
  Li1194  Li1+  0.331  0.914  0.019  0.000
  Li1202  Li1+  0.200  0.800  0.200  0.000
  Li1208  Li1+  0.300  0.800  0.300  0.000
  Li1220  Li1+  0.331  0.914  0.219  0.000
  Li1228  Li1+  0.200  0.800  0.400  0.000
  Li1234  Li1+  0.300  0.800  0.500  0.000
  Li1238  Li1+  0.283  0.800  0.597  0.000
  Li1243  Li1+  0.317  0.800  0.403  0.000
  Li1254  Li1+  0.200  0.800  0.600  0.000
  Li1260  Li1+  0.300  0.800  0.700  0.000
  Li1286  Li1+  0.300  0.800  0.900  0.000
  Li1306  Li1+  0.400  0.000  0.000  0.000
  Li1312  Li1+  0.500  -0.000  0.100  0.000
  Li1317  Li1+  0.503  0.086  0.103  0.000
  Li1318  Li1+  0.497  0.114  0.097  0.000
  Li1332  Li1+  0.400  -0.000  0.200  0.000
  Li1338  Li1+  0.500  -0.000  0.300  0.000
  Li1340  Li1+  0.469  0.089  0.383  0.000
  Li1343  Li1+  0.503  0.086  0.303  0.000
  Li1347  Li1+  0.517  -0.000  0.203  0.000
  Li1350  Li1+  0.531  0.114  0.219  0.000
  Li1358  Li1+  0.400  -0.000  0.400  0.000
  Li1368  Li1+  0.483  -0.000  0.597  0.000
  Li1369  Li1+  0.503  0.086  0.503  0.000
  Li1376  Li1+  0.531  0.114  0.419  0.000
  Li1384  Li1+  0.400  -0.000  0.600  0.000
  Li1390  Li1+  0.500  -0.000  0.700  0.000
  Li1410  Li1+  0.400  -0.000  0.800  0.000
  Li1420  Li1+  0.483  -0.000  0.997  0.000
  Li1422  Li1+  0.497  0.114  0.897  0.000
  Li1436  Li1+  0.400  0.200  0.000  0.000
  Li1442  Li1+  0.500  0.200  0.100  0.000
  Li1447  Li1+  0.503  0.286  0.103  0.000
  Li1454  Li1+  0.531  0.314  0.019  0.000
  Li1462  Li1+  0.400  0.200  0.200  0.000
  Li1468  Li1+  0.500  0.200  0.300  0.000
  Li1472  Li1+  0.483  0.200  0.397  0.000
  Li1477  Li1+  0.517  0.200  0.203  0.000
  Li1480  Li1+  0.531  0.314  0.219  0.000
  Li1488  Li1+  0.400  0.200  0.400  0.000
  Li1494  Li1+  0.500  0.200  0.500  0.000
  Li1514  Li1+  0.400  0.200  0.600  0.000
  Li1520  Li1+  0.500  0.200  0.700  0.000
  Li1540  Li1+  0.400  0.200  0.800  0.000
  Li1546  Li1+  0.500  0.200  0.900  0.000
  Li1550  Li1+  0.483  0.200  0.997  0.000
  Li1566  Li1+  0.400  0.400  0.000  0.000
  Li1578  Li1+  0.497  0.514  0.097  0.000
  Li1592  Li1+  0.400  0.400  0.200  0.000
  Li1598  Li1+  0.500  0.400  0.300  0.000
  Li1618  Li1+  0.400  0.400  0.400  0.000
  Li1624  Li1+  0.500  0.400  0.500  0.000
  Li1644  Li1+  0.400  0.400  0.600  0.000
  Li1650  Li1+  0.500  0.400  0.700  0.000
  Li1652  Li1+  0.469  0.489  0.783  0.000
  Li1659  Li1+  0.517  0.400  0.603  0.000
  Li1662  Li1+  0.531  0.514  0.619  0.000
  Li1702  Li1+  0.500  0.600  0.100  0.000
  Li1708  Li1+  0.497  0.714  0.097  0.000
  Li1722  Li1+  0.400  0.600  0.200  0.000
  Li1732  Li1+  0.483  0.600  0.397  0.000
  Li1748  Li1+  0.400  0.600  0.400  0.000
  Li1754  Li1+  0.500  0.600  0.500  0.000
  Li1759  Li1+  0.503  0.686  0.503  0.000
  Li1763  Li1+  0.517  0.600  0.403  0.000
  Li1774  Li1+  0.400  0.600  0.600  0.000
  Li1780  Li1+  0.500  0.600  0.700  0.000
  Li1789  Li1+  0.517  0.600  0.603  0.000
  Li1792  Li1+  0.531  0.714  0.619  0.000
  Li1800  Li1+  0.400  0.600  0.800  0.000
  Li1815  Li1+  0.517  0.600  0.803  0.000
  Li1826  Li1+  0.400  0.800  0.000  0.000
  Li1832  Li1+  0.500  0.800  0.100  0.000
  Li1836  Li1+  0.483  0.800  0.197  0.000
  Li1841  Li1+  0.517  0.800  0.003  0.000
  Li1852  Li1+  0.400  0.800  0.200  0.000
  Li1864  Li1+  0.497  0.914  0.297  0.000
  Li1870  Li1+  0.531  0.914  0.219  0.000
  Li1878  Li1+  0.400  0.800  0.400  0.000
  Li1884  Li1+  0.500  0.800  0.500  0.000
  Li1904  Li1+  0.400  0.800  0.600  0.000
  Li1910  Li1+  0.500  0.800  0.700  0.000
  Li1914  Li1+  0.483  0.800  0.797  0.000
  Li1930  Li1+  0.400  0.800  0.800  0.000
  Li1936  Li1+  0.500  0.800  0.900  0.000
  Li1956  Li1+  0.600  0.000  0.000  0.000
  Li1982  Li1+  0.600  -0.000  0.200  0.000
  Li1988  Li1+  0.700  -0.000  0.300  0.000
  Li1992  Li1+  0.683  -0.000  0.397  0.000
  Li1994  Li1+  0.697  0.114  0.297  0.000
  Li2003  Li1+  0.600  0.100  0.500  0.000
  Li2011  Li1+  0.700  0.100  0.400  0.000
  Li2016  Li1+  0.669  0.089  0.583  0.000
  Li2020  Li1+  0.697  0.114  0.497  0.000
  Li2040  Li1+  0.700  -0.000  0.700  0.000
  Li2044  Li1+  0.683  -0.000  0.797  0.000
  Li2046  Li1+  0.697  0.114  0.697  0.000
  Li2060  Li1+  0.600  -0.000  0.800  0.000
  Li2092  Li1+  0.700  0.200  0.100  0.000
  Li2096  Li1+  0.683  0.200  0.197  0.000
  Li2112  Li1+  0.600  0.200  0.200  0.000
  Li2118  Li1+  0.700  0.200  0.300  0.000
  Li2122  Li1+  0.683  0.200  0.397  0.000
  Li2138  Li1+  0.600  0.200  0.400  0.000
  Li2144  Li1+  0.700  0.200  0.500  0.000
  Li2148  Li1+  0.683  0.200  0.597  0.000
  Li2170  Li1+  0.700  0.200  0.700  0.000
  Li2174  Li1+  0.683  0.200  0.797  0.000
  Li2176  Li1+  0.697  0.314  0.697  0.000
  Li2190  Li1+  0.600  0.200  0.800  0.000
  Li2196  Li1+  0.700  0.200  0.900  0.000
  Li2216  Li1+  0.600  0.400  0.000  0.000
  Li2222  Li1+  0.700  0.400  0.100  0.000
  Li2226  Li1+  0.683  0.400  0.197  0.000
  Li2242  Li1+  0.600  0.400  0.200  0.000
  Li2248  Li1+  0.700  0.400  0.300  0.000
  Li2268  Li1+  0.600  0.400  0.400  0.000
  Li2274  Li1+  0.700  0.400  0.500  0.000
  Li2280  Li1+  0.697  0.514  0.497  0.000
  Li2294  Li1+  0.600  0.400  0.600  0.000
  Li2300  Li1+  0.700  0.400  0.700  0.000
  Li2320  Li1+  0.600  0.400  0.800  0.000
  Li2326  Li1+  0.700  0.400  0.900  0.000
  Li2346  Li1+  0.600  0.600  0.000  0.000
  Li2349  Li1+  0.700  0.700  0.000  0.000
  Li2352  Li1+  0.700  0.600  0.100  0.000
  Li2358  Li1+  0.697  0.714  0.097  0.000
  Li2361  Li1+  0.717  0.600  0.003  0.000
  Li2372  Li1+  0.600  0.600  0.200  0.000
  Li2378  Li1+  0.700  0.600  0.300  0.000
  Li2390  Li1+  0.731  0.714  0.219  0.000
  Li2406  Li1+  0.669  0.689  0.583  0.000
  Li2408  Li1+  0.683  0.600  0.597  0.000
  Li2409  Li1+  0.703  0.686  0.503  0.000
  Li2413  Li1+  0.717  0.600  0.403  0.000
  Li2424  Li1+  0.600  0.600  0.600  0.000
  Li2430  Li1+  0.700  0.600  0.700  0.000
  Li2434  Li1+  0.683  0.600  0.797  0.000
  Li2435  Li1+  0.703  0.686  0.703  0.000
  Li2450  Li1+  0.600  0.600  0.800  0.000
  Li2456  Li1+  0.700  0.600  0.900  0.000
  Li2476  Li1+  0.600  0.800  0.000  0.000
  Li2484  Li1+  0.669  0.889  0.183  0.000
  Li2486  Li1+  0.683  0.800  0.197  0.000
  Li2508  Li1+  0.700  0.800  0.300  0.000
  Li2514  Li1+  0.697  0.914  0.297  0.000
  Li2534  Li1+  0.700  0.800  0.500  0.000
  Li2560  Li1+  0.700  0.800  0.700  0.000
  Li2564  Li1+  0.683  0.800  0.797  0.000
  Li2580  Li1+  0.600  0.800  0.800  0.000
  Li2595  Li1+  0.717  0.800  0.803  0.000
  Li2606  Li1+  0.800  0.000  0.000  0.000
  Li2612  Li1+  0.900  -0.000  0.100  0.000
  Li2614  Li1+  0.869  0.089  0.183  0.000
  Li2621  Li1+  0.917  -0.000  0.003  0.000
  Li2638  Li1+  0.900  -0.000  0.300  0.000
  Li2650  Li1+  0.931  0.114  0.219  0.000
  Li2658  Li1+  0.800  -0.000  0.400  0.000
  Li2664  Li1+  0.900  -0.000  0.500  0.000
  Li2676  Li1+  0.931  0.114  0.419  0.000
  Li2684  Li1+  0.800  -0.000  0.600  0.000
  Li2690  Li1+  0.900  -0.000  0.700  0.000
  Li2710  Li1+  0.800  -0.000  0.800  0.000
  Li2716  Li1+  0.900  -0.000  0.900  0.000
  Li2728  Li1+  0.931  0.114  0.819  0.000
  Li2751  Li1+  0.917  0.200  0.003  0.000
  Li2754  Li1+  0.931  0.314  0.019  0.000
  Li2762  Li1+  0.800  0.200  0.200  0.000
  Li2768  Li1+  0.900  0.200  0.300  0.000
  Li2773  Li1+  0.903  0.286  0.303  0.000
  Li2777  Li1+  0.917  0.200  0.203  0.000
  Li2780  Li1+  0.931  0.314  0.219  0.000
  Li2788  Li1+  0.800  0.200  0.400  0.000
  Li2806  Li1+  0.931  0.314  0.419  0.000
  Li2814  Li1+  0.800  0.200  0.600  0.000
  Li2840  Li1+  0.800  0.200  0.800  0.000
  Li2846  Li1+  0.900  0.200  0.900  0.000
  Li2855  Li1+  0.917  0.200  0.803  0.000
  Li2866  Li1+  0.800  0.400  0.000  0.000
  Li2872  Li1+  0.900  0.400  0.100  0.000
  Li2876  Li1+  0.883  0.400  0.197  0.000
  Li2884  Li1+  0.931  0.514  0.019  0.000
  Li2892  Li1+  0.800  0.400  0.200  0.000
  Li2902  Li1+  0.883  0.400  0.397  0.000
  Li2903  Li1+  0.903  0.486  0.303  0.000
  Li2907  Li1+  0.917  0.400  0.203  0.000
  Li2918  Li1+  0.800  0.400  0.400  0.000
  Li2924  Li1+  0.900  0.400  0.500  0.000
  Li2936  Li1+  0.931  0.514  0.419  0.000
  Li2944  Li1+  0.800  0.400  0.600  0.000
  Li2950  Li1+  0.900  0.400  0.700  0.000
  Li2954  Li1+  0.883  0.400  0.797  0.000
  Li2976  Li1+  0.900  0.400  0.900  0.000
  Li2996  Li1+  0.800  0.600  0.000  0.000
  Li3002  Li1+  0.900  0.600  0.100  0.000
  Li3007  Li1+  0.903  0.686  0.103  0.000
  Li3011  Li1+  0.917  0.600  0.003  0.000
  Li3014  Li1+  0.931  0.714  0.019  0.000
  Li3022  Li1+  0.800  0.600  0.200  0.000
  Li3040  Li1+  0.931  0.714  0.219  0.000
  Li3048  Li1+  0.800  0.600  0.400  0.000
  Li3054  Li1+  0.900  0.600  0.500  0.000
  Li3074  Li1+  0.800  0.600  0.600  0.000
  Li3080  Li1+  0.900  0.600  0.700  0.000
  Li3082  Li1+  0.869  0.689  0.783  0.000
  Li3084  Li1+  0.883  0.600  0.797  0.000
  Li3085  Li1+  0.903  0.686  0.703  0.000
  Li3089  Li1+  0.917  0.600  0.603  0.000
  Li3092  Li1+  0.931  0.714  0.619  0.000
  Li3100  Li1+  0.800  0.600  0.800  0.000
  Li3106  Li1+  0.900  0.600  0.900  0.000
  Li3110  Li1+  0.883  0.600  0.997  0.000
  Li3111  Li1+  0.903  0.686  0.903  0.000
  Li3112  Li1+  0.897  0.714  0.897  0.000
  Li3126  Li1+  0.800  0.800  0.000  0.000
  Li3132  Li1+  0.900  0.800  0.100  0.000
  Li3141  Li1+  0.917  0.800  0.003  0.000
  Li3152  Li1+  0.800  0.800  0.200  0.000
  Li3158  Li1+  0.900  0.800  0.300  0.000
  Li3162  Li1+  0.883  0.800  0.397  0.000
  Li3167  Li1+  0.917  0.800  0.203  0.000
  Li3170  Li1+  0.931  0.914  0.219  0.000
  Li3184  Li1+  0.900  0.800  0.500  0.000
  Li3189  Li1+  0.903  0.886  0.503  0.000
  Li3204  Li1+  0.800  0.800  0.600  0.000
  Li3210  Li1+  0.900  0.800  0.700  0.000
  Li3214  Li1+  0.883  0.800  0.797  0.000
  Li3219  Li1+  0.917  0.800  0.603  0.000
  Li3230  Li1+  0.800  0.800  0.800  0.000
  Li3236  Li1+  0.900  0.800  0.900  0.000
  Li3240  Li1+  0.883  0.800  0.997  0.000
  Li1416  Li1+  0.500  -0.000  0.900  0.000
  Li640  Li1+  0.083  0.800  0.997  0.000
  Li2398  Li1+  0.600  0.600  0.400  0.000
  Li1498  Li1+  0.483  0.200  0.597  0.000
  Li1006  Li1+  0.297  0.514  0.697  0.000
  Li354  Li1+  0.083  0.400  0.797  0.000
  Li1264  Li1+  0.283  0.800  0.797  0.000
  Li1176  Li1+  0.200  0.800  0.000  0.000
  Li319  Li1+  -0.000  0.500  0.400  0.000
  Li604  Li1+  -0.000  0.800  0.600  0.000
  Li162  Li1+  -0.000  0.200  0.200  0.000
  Li2009  Li1+  0.600  0.100  0.400  0.000
  Li948  Li1+  0.300  0.400  0.300  0.000
  Li1529  Li1+  0.517  0.200  0.603  0.000
  Li1654  Li1+  0.483  0.400  0.797  0.000
  Li214  Li1+  -0.000  0.200  0.600  0.000
  Li671  Li1+  0.317  -0.000  0.003  0.000
  Li2034  Li1+  0.600  -0.000  0.600  0.000
  Li2933  Li1+  0.917  0.400  0.403  0.000
  Li376  Li1+  0.100  0.400  0.900  0.000
  Li1810  Li1+  0.483  0.600  0.997  0.000
  Li1098  Li1+  0.200  0.600  0.400  0.000
  Li3245  Li1+  0.917  0.800  0.803  0.000
  Li2668  Li1+  0.883  -0.000  0.597  0.000
  Li17  Li1+  0.103  0.086  0.103  0.000
  Li3215  Li1+  0.903  0.886  0.703  0.000
  Li667  Li1+  0.303  0.086  0.103  0.000
  Li1030  Li1+  0.283  0.400  0.997  0.000
  Li734  Li1+  0.200  -0.000  0.600  0.000
  Li1581  Li1+  0.517  0.400  0.003  0.000
  Li2970  Li1+  0.800  0.400  0.800  0.000
  Li1676  Li1+  0.500  0.400  0.900  0.000
  Li2472  Li1+  0.600  0.800  0.100  0.000
  Li1728  Li1+  0.500  0.600  0.300  0.000
  Li1099  Li1+  0.200  0.700  0.400  0.000
  Li1104  Li1+  0.300  0.600  0.500  0.000
  Li662  Li1+  0.300  -0.000  0.100  0.000
  Li844  Li1+  0.300  0.200  0.500  0.000
  Li980  Li1+  0.297  0.514  0.497  0.000
  Li1670  Li1+  0.400  0.400  0.800  0.000
  Li3115  Li1+  0.917  0.600  0.803  0.000
  Li2404  Li1+  0.700  0.600  0.500  0.000
  Li3063  Li1+  0.917  0.600  0.403  0.000
  Li2850  Li1+  0.883  0.200  0.997  0.000
  Li506  Li1+  0.100  0.600  0.900  0.000
  Li730  Li1+  0.200  -0.000  0.700  0.000
  Li2554  Li1+  0.600  0.800  0.600  0.000
  Li2086  Li1+  0.600  0.200  0.000  0.000
  Li593  Li1+  0.117  0.800  0.403  0.000
  Li355  Li1+  0.103  0.486  0.703  0.000
  Li1696  Li1+  0.400  0.600  0.000  0.000
  Li1806  Li1+  0.500  0.600  0.900  0.000
  Li1342  Li1+  0.483  -0.000  0.397  0.000
  Li1370  Li1+  0.497  0.114  0.497  0.000
  Li1962  Li1+  0.700  -0.000  0.100  0.000
  Li801  Li1+  0.317  0.200  0.003  0.000
  Li714  Li1+  0.300  -0.000  0.500  0.000
  Li1364  Li1+  0.500  -0.000  0.500  0.000
  Li2528  Li1+  0.600  0.800  0.400  0.000
  Li522  Li1+  -0.000  0.800  0.100  0.000
  Li2304  Li1+  0.683  0.400  0.797  0.000
  Li553  Li1+  -0.000  0.900  0.200  0.000
  Li1858  Li1+  0.500  0.800  0.300  0.000
  Li2505  Li1+  0.700  0.900  0.200  0.000
  Li255  Li1+  0.117  0.200  0.803  0.000
  Li2699  Li1+  0.917  -0.000  0.603  0.000
  Li2502  Li1+  0.600  0.800  0.200  0.000
  Li578  Li1+  -0.000  0.800  0.400  0.000
  Li616  Li1+  0.097  0.914  0.697  0.000
  Li381  Li1+  0.103  0.486  0.903  0.000
  Li2008  Li1+  0.600  -0.000  0.400  0.000
  Li385  Li1+  0.117  0.400  0.803  0.000
  Li2014  Li1+  0.700  -0.000  0.500  0.000
  Li2482  Li1+  0.700  0.800  0.100  0.000
  Li1108  Li1+  0.283  0.600  0.597  0.000
  Li3193  Li1+  0.917  0.800  0.403  0.000
  Li3028  Li1+  0.900  0.600  0.300  0.000
  Li1682  Li1+  0.497  0.514  0.897  0.000
  Li16  Li1+  0.083  -0.000  0.197  0.000
  Li2747  Li1+  0.903  0.286  0.103  0.000
  Li288  Li1+  -0.000  0.400  0.300  0.000
  Li220  Li1+  0.100  0.200  0.700  0.000
  Li1997  Li1+  0.717  -0.000  0.203  0.000
  Li174  Li1+  0.097  0.314  0.297  0.000
  Li1978  Li1+  0.600  -0.000  0.300  0.000
  Li1280  Li1+  0.200  0.800  0.800  0.000
  Li2439  Li1+  0.717  0.600  0.603  0.000
  Li2252  Li1+  0.683  0.400  0.397  0.000
  Li900  Li1+  0.283  0.200  0.997  0.000
  Li147  Li1+  0.103  0.286  0.103  0.000
  Li588  Li1+  0.083  0.800  0.597  0.000
  Li2632  Li1+  0.800  -0.000  0.200  0.000
  Li1016  Li1+  0.200  0.400  0.900  0.000
  Li137  Li1+  -0.000  0.300  0.000  0.000
  Li891  Li1+  0.200  0.300  0.800  0.000
  Li656  Li1+  0.200  0.000  0.000  0.000
  Li1572  Li1+  0.500  0.400  0.100  0.000
  Li1292  Li1+  0.297  0.914  0.897  0.000
  Li99  Li1+  0.117  -0.000  0.603  0.000
  Li1551  Li1+  0.503  0.286  0.903  0.000
  Li94  Li1+  0.083  -0.000  0.797  0.000
  Li1888  Li1+  0.483  0.800  0.597  0.000
  Li770  Li1+  0.283  -0.000  0.997  0.000
  Li411  Li1+  0.117  0.600  0.003  0.000
  Li558  Li1+  0.100  0.800  0.300  0.000
  Li3188  Li1+  0.883  0.800  0.597  0.000
  Li277  Li1+  0.103  0.486  0.103  0.000
  Li3137  Li1+  0.903  0.886  0.103  0.000
  Li688  Li1+  0.300  -0.000  0.300  0.000
  Li1026  Li1+  0.300  0.400  0.900  0.000
  Li744  Li1+  0.283  -0.000  0.797  0.000
  Li2742  Li1+  0.900  0.200  0.100  0.000
  Li600  Li1+  -0.000  0.800  0.700  0.000
  Li749  Li1+  0.317  -0.000  0.603  0.000
  Li1281  Li1+  0.200  0.900  0.800  0.000
  Li142  Li1+  0.100  0.200  0.100  0.000
  Li2643  Li1+  0.903  0.086  0.303  0.000
  Li163  Li1+  -0.000  0.300  0.200  0.000
  Li2586  Li1+  0.700  0.800  0.900  0.000
  Li2436  Li1+  0.697  0.714  0.697  0.000
  Li3178  Li1+  0.800  0.800  0.400  0.000
  Li2098  Li1+  0.697  0.314  0.097  0.000
  Li2898  Li1+  0.900  0.400  0.300  0.000
  Li2538  Li1+  0.683  0.800  0.597  0.000
  Li18  Li1+  0.097  0.114  0.097  0.000
  Li2150  Li1+  0.697  0.314  0.497  0.000
  Li250  Li1+  0.083  0.200  0.997  0.000
  Li2278  Li1+  0.683  0.400  0.597  0.000
  Li1125  Li1+  0.200  0.700  0.600  0.000
  Li1706  Li1+  0.483  0.600  0.197  0.000
  Li2959  Li1+  0.917  0.400  0.603  0.000
  Li460  Li1+  0.097  0.714  0.497  0.000
  Li548  Li1+  -0.000  0.800  0.300  0.000
  Li1555  Li1+  0.517  0.200  0.803  0.000
  Li1602  Li1+  0.483  0.400  0.397  0.000
  Li2820  Li1+  0.900  0.200  0.700  0.000
  Li2695  Li1+  0.903  0.086  0.703  0.000
  Li1399  Li1+  0.517  -0.000  0.603  0.000
  Li225  Li1+  0.103  0.286  0.703  0.000
  Li2746  Li1+  0.883  0.200  0.197  0.000
  Li860  Li1+  0.200  0.200  0.700  0.001
  Li1607  Li1+  0.517  0.400  0.203  0.001
  Li2851  Li1+  0.903  0.286  0.903  0.001
  Li1796  Li1+  0.400  0.600  0.900  0.001
  Li2164  Li1+  0.600  0.200  0.600  0.001
  Li1758  Li1+  0.483  0.600  0.597  0.001
  Li1042  Li1+  0.200  0.600  0.100  0.001
  Li1734  Li1+  0.497  0.714  0.297  0.001
  Li2736  Li1+  0.800  0.200  0.000  0.001
  Li1316  Li1+  0.483  -0.000  0.197  0.001
  Li2124  Li1+  0.697  0.314  0.297  0.001
  Li1134  Li1+  0.283  0.600  0.797  0.001
  Li2066  Li1+  0.700  -0.000  0.900  0.001
  Li1603  Li1+  0.503  0.486  0.303  0.001
  Li224  Li1+  0.083  0.200  0.797  0.001
  Li359  Li1+  0.117  0.400  0.603  0.001
  Li1630  Li1+  0.497  0.514  0.497  0.001
  Li2720  Li1+  0.883  -0.000  0.997  0.001
  Li2503  Li1+  0.600  0.900  0.200  0.001
  Li2179  Li1+  0.717  0.200  0.603  0.001
  Li1451  Li1+  0.517  0.200  0.003  0.001
  Li2696  Li1+  0.897  0.114  0.697  0.001
  Li444  Li1+  -0.000  0.600  0.500  0.001
  Li631  Li1+  -0.000  0.900  0.800  0.001
  Li2565  Li1+  0.703  0.886  0.703  0.001
  Li68  Li1+  0.083  -0.000  0.597  0.001
  Li2037  Li1+  0.700  0.100  0.600  0.001
  Li1893  Li1+  0.517  0.800  0.403  0.001
  Li938  Li1+  0.200  0.400  0.300  0.001
  Li3060  Li1+  0.897  0.714  0.497  0.001
  Li2356  Li1+  0.683  0.600  0.197  0.001
  Li1146  Li1+  0.200  0.600  0.900  0.001
  Li2512  Li1+  0.683  0.800  0.397  0.001
  Li437  Li1+  0.117  0.600  0.203  0.001
  Li2425  Li1+  0.600  0.700  0.600  0.001
  Li1373  Li1+  0.517  -0.000  0.403  0.001
  Li2569  Li1+  0.717  0.800  0.603  0.001
  Li848  Li1+  0.283  0.200  0.597  0.001
  Li1213  Li1+  0.303  0.886  0.303  0.001
  Li380  Li1+  0.083  0.400  0.997  0.001
  Li2465  Li1+  0.717  0.600  0.803  0.001
  Li2590  Li1+  0.683  0.800  0.997  0.001
  Li2023  Li1+  0.717  -0.000  0.403  0.001
  Li666  Li1+  0.283  -0.000  0.197  0.001
  Li917  Li1+  0.200  0.500  0.000  0.001
  Li252  Li1+  0.097  0.314  0.897  0.001
  Li2642  Li1+  0.883  -0.000  0.397  0.001
  Li1290  Li1+  0.283  0.800  0.997  0.001
  Li177  Li1+  0.117  0.200  0.203  0.001
  Li122  Li1+  0.097  0.114  0.897  0.001
  Li1212  Li1+  0.283  0.800  0.397  0.001
  Li978  Li1+  0.283  0.400  0.597  0.001
  Li697  Li1+  0.317  -0.000  0.203  0.001
  Li615  Li1+  0.103  0.886  0.703  0.001
  Li2881  Li1+  0.917  0.400  0.003  0.001
  Li2202  Li1+  0.697  0.314  0.897  0.002
  Li3034  Li1+  0.897  0.714  0.297  0.002
  Li589  Li1+  0.103  0.886  0.503  0.002
  Li1084  Li1+  0.297  0.714  0.297  0.002
  Li1047  Li1+  0.200  0.700  0.000  0.002
  Li1162  Li1+  0.297  0.714  0.897  0.002
  Li2460  Li1+  0.683  0.600  0.997  0.002
  Li1785  Li1+  0.503  0.686  0.703  0.002
  Li2647  Li1+  0.917  -0.000  0.203  0.002
  Li158  Li1+  -0.000  0.200  0.300  0.002
  Li1446  Li1+  0.483  0.200  0.197  0.002
  Li1139  Li1+  0.317  0.600  0.603  0.002
  Li2049  Li1+  0.717  -0.000  0.603  0.002
  Li1503  Li1+  0.517  0.200  0.403  0.002
  Li983  Li1+  0.317  0.400  0.403  0.002
  Li511  Li1+  0.103  0.686  0.903  0.002
  Li2673  Li1+  0.917  -0.000  0.403  0.002
  Li120  Li1+  0.083  -0.000  0.997  0.002
  Li2980  Li1+  0.883  0.400  0.997  0.002
  Li2212  Li1+  0.600  0.400  0.100  0.002
  Li2075  Li1+  0.717  -0.000  0.803  0.002
  Li1344  Li1+  0.497  0.114  0.297  0.002
  Li486  Li1+  0.097  0.714  0.697  0.002
  Li2725  Li1+  0.917  -0.000  0.803  0.002
  Li3136  Li1+  0.883  0.800  0.197  0.002
  Li619  Li1+  0.117  0.800  0.603  0.002
  Li3242  Li1+  0.897  0.914  0.897  0.002
  Li2721  Li1+  0.903  0.086  0.903  0.002
  Li3058  Li1+  0.883  0.600  0.597  0.002
  Li1054  Li1+  0.269  0.689  0.183  0.002
  Li830  Li1+  0.331  0.314  0.219  0.002
  Li1425  Li1+  0.517  -0.000  0.803  0.002
  Li1983  Li1+  0.600  0.100  0.200  0.003
  Li203  Li1+  0.117  0.200  0.403  0.003
  Li3248  Li1+  0.931  0.914  0.819  0.003
  Li2824  Li1+  0.883  0.200  0.797  0.003
  Li2306  Li1+  0.697  0.514  0.697  0.003
  Li3222  Li1+  0.931  0.914  0.619  0.003
  Li1394  Li1+  0.483  -0.000  0.797  0.003
  Li2309  Li1+  0.717  0.400  0.603  0.003
  Li2200  Li1+  0.683  0.200  0.997  0.003
  Li1082  Li1+  0.283  0.600  0.397  0.003
  Li510  Li1+  0.083  0.600  0.997  0.003
  Li43  Li1+  0.103  0.086  0.303  0.003
  Li905  Li1+  0.317  0.200  0.803  0.003
  Li1061  Li1+  0.317  0.600  0.003  0.003
  Li2929  Li1+  0.903  0.486  0.503  0.003
  Li1577  Li1+  0.503  0.486  0.103  0.003
  Li1942  Li1+  0.497  0.914  0.897  0.003
  Li775  Li1+  0.317  -0.000  0.803  0.003
  Li3118  Li1+  0.931  0.714  0.819  0.003
  Li782  Li1+  0.200  0.200  0.100  0.003
  Li2331  Li1+  0.703  0.486  0.903  0.003
  Li692  Li1+  0.283  -0.000  0.397  0.003
  Li3006  Li1+  0.883  0.600  0.197  0.003
  Li44  Li1+  0.097  0.114  0.297  0.003
  Li1733  Li1+  0.503  0.686  0.303  0.003
  Li2491  Li1+  0.717  0.800  0.003  0.003
  Li2018  Li1+  0.683  -0.000  0.597  0.003
  Li2153  Li1+  0.717  0.200  0.403  0.003
  Li1916  Li1+  0.497  0.914  0.697  0.003
  Li2488  Li1+  0.697  0.914  0.097  0.003
  Li2803  Li1+  0.917  0.200  0.403  0.003
  Li2387  Li1+  0.717  0.600  0.203  0.003
  Li2070  Li1+  0.683  -0.000  0.997  0.003
  Li95  Li1+  0.103  0.086  0.703  0.003
  Li2019  Li1+  0.703  0.086  0.503  0.003
  Li1035  Li1+  0.317  0.400  0.803  0.003
  Li2382  Li1+  0.683  0.600  0.397  0.003
  Li931  Li1+  0.317  0.400  0.003  0.003
  Li2543  Li1+  0.717  0.800  0.403  0.004
  Li2694  Li1+  0.883  -0.000  0.797  0.004
  Li432  Li1+  0.083  0.600  0.397  0.004
  Li886  Li1+  0.200  0.200  0.900  0.004
  Li694  Li1+  0.297  0.114  0.297  0.004
  Li797  Li1+  0.303  0.286  0.103  0.004
  Li1266  Li1+  0.297  0.914  0.697  0.004
  Li1629  Li1+  0.503  0.486  0.503  0.004
  Li406  Li1+  0.083  0.600  0.197  0.004
  Li1838  Li1+  0.497  0.914  0.097  0.004
  Li954  Li1+  0.297  0.514  0.297  0.004
  Li1628  Li1+  0.483  0.400  0.597  0.004
  Li304  Li1+  0.097  0.514  0.297  0.004
  Li1474  Li1+  0.497  0.314  0.297  0.004
  Li2517  Li1+  0.717  0.800  0.203  0.004
  Li281  Li1+  0.117  0.400  0.003  0.004
  Li1890  Li1+  0.497  0.914  0.497  0.004
  Li723  Li1+  0.317  -0.000  0.403  0.004
  Li2798  Li1+  0.883  0.200  0.597  0.004
  Li1784  Li1+  0.483  0.600  0.797  0.004
  Li2985  Li1+  0.917  0.400  0.803  0.005
  Li1945  Li1+  0.517  0.800  0.803  0.005
  Li3190  Li1+  0.897  0.914  0.497  0.005
  Li1525  Li1+  0.503  0.286  0.703  0.005
  Li198  Li1+  0.083  0.200  0.597  0.005
  Li125  Li1+  0.117  -0.000  0.803  0.005
  Li2928  Li1+  0.883  0.400  0.597  0.005
  Li226  Li1+  0.097  0.314  0.697  0.005
  Li742  Li1+  0.269  0.089  0.783  0.005
  Li648  Li1+  0.131  0.914  0.819  0.005
  Li73  Li1+  0.117  -0.000  0.403  0.005
  Li2616  Li1+  0.883  -0.000  0.197  0.005
  Li2332  Li1+  0.697  0.514  0.897  0.005
  Li1031  Li1+  0.303  0.486  0.903  0.005
  Li1188  Li1+  0.297  0.914  0.097  0.005
  Li1889  Li1+  0.503  0.886  0.503  0.005
  Li50  Li1+  0.131  0.114  0.219  0.005
  Li1524  Li1+  0.483  0.200  0.797  0.005
  Li40  Li1+  0.069  0.089  0.383  0.005
  Li3033  Li1+  0.903  0.686  0.303  0.005
  Li1470  Li1+  0.469  0.289  0.383  0.006
  Li1265  Li1+  0.303  0.886  0.703  0.006
  Li2539  Li1+  0.703  0.886  0.503  0.006
  Li2330  Li1+  0.683  0.400  0.997  0.006
  Li953  Li1+  0.303  0.486  0.303  0.006
  Li1396  Li1+  0.497  0.114  0.697  0.006
  Li3032  Li1+  0.883  0.600  0.397  0.006
  Li1526  Li1+  0.497  0.314  0.697  0.006
  Li1966  Li1+  0.683  -0.000  0.197  0.006
  Li3086  Li1+  0.897  0.714  0.697  0.006
  Li1576  Li1+  0.483  0.400  0.197  0.006
  Li1291  Li1+  0.303  0.886  0.903  0.006
  Li957  Li1+  0.317  0.400  0.203  0.006
  Li1113  Li1+  0.317  0.600  0.403  0.006
  Li1172  Li1+  0.200  0.800  0.100  0.006
  Li2956  Li1+  0.897  0.514  0.697  0.006
  Li2231  Li1+  0.717  0.400  0.003  0.007
  Li248  Li1+  0.069  0.289  0.983  0.007
  Li2829  Li1+  0.917  0.200  0.603  0.007
  Li1269  Li1+  0.317  0.800  0.603  0.007
  Li718  Li1+  0.283  -0.000  0.597  0.007
  Li693  Li1+  0.303  0.086  0.303  0.007
  Li879  Li1+  0.317  0.200  0.603  0.007
  Li1552  Li1+  0.497  0.314  0.897  0.007
  Li746  Li1+  0.297  0.114  0.697  0.007
  Li1500  Li1+  0.497  0.314  0.497  0.007
  Li1737  Li1+  0.517  0.600  0.203  0.007
  Li2794  Li1+  0.900  0.200  0.500  0.007
  Li645  Li1+  0.117  0.800  0.803  0.007
  Li1940  Li1+  0.483  0.800  0.997  0.007
  Li1919  Li1+  0.517  0.800  0.603  0.007
  Li2394  Li1+  0.600  0.600  0.500  0.007
  Li2826  Li1+  0.897  0.314  0.697  0.007
  Li1135  Li1+  0.303  0.686  0.703  0.007
  Li1786  Li1+  0.497  0.714  0.697  0.007
  Li849  Li1+  0.303  0.286  0.503  0.007
  Li251  Li1+  0.103  0.286  0.903  0.007
  Li2201  Li1+  0.703  0.286  0.903  0.007
  Li1907  Li1+  0.500  0.900  0.600  0.007
  Li2748  Li1+  0.897  0.314  0.097  0.007
  Li2335  Li1+  0.717  0.400  0.803  0.007
  Li173  Li1+  0.103  0.286  0.303  0.008
  Li278  Li1+  0.097  0.514  0.097  0.008
  Li590  Li1+  0.097  0.914  0.497  0.008
  Li2149  Li1+  0.703  0.286  0.503  0.008
  Li876  Li1+  0.297  0.314  0.697  0.008
  Li2072  Li1+  0.697  0.114  0.897  0.008
  Li1812  Li1+  0.497  0.714  0.897  0.008
  Li2228  Li1+  0.697  0.514  0.097  0.008
  Li2384  Li1+  0.697  0.714  0.297  0.008
  Li668  Li1+  0.297  0.114  0.097  0.008
  Li763  Li1+  0.300  0.100  0.800  0.008
  Li1971  Li1+  0.717  -0.000  0.003  0.008
  Li1711  Li1+  0.517  0.600  0.003  0.008
  Li2930  Li1+  0.897  0.514  0.497  0.008
  Li1473  Li1+  0.503  0.286  0.303  0.008
  Li1295  Li1+  0.317  0.800  0.803  0.008
  Li1038  Li1+  0.331  0.514  0.819  0.008
  Li2257  Li1+  0.717  0.400  0.203  0.008
  Li2540  Li1+  0.697  0.914  0.497  0.009
  Li1636  Li1+  0.531  0.514  0.419  0.009
  Li2462  Li1+  0.697  0.714  0.897  0.009
  Li1863  Li1+  0.503  0.886  0.303  0.009
  Li2550  Li1+  0.600  0.800  0.700  0.009
  Li356  Li1+  0.097  0.514  0.697  0.009
  Li1421  Li1+  0.503  0.086  0.903  0.009
  Li1499  Li1+  0.503  0.286  0.503  0.009
  Li2772  Li1+  0.883  0.200  0.397  0.009
  Li1418  Li1+  0.469  0.089  0.983  0.009
  Li407  Li1+  0.103  0.686  0.103  0.009
  Li2487  Li1+  0.703  0.886  0.103  0.010
  Li3163  Li1+  0.903  0.886  0.303  0.010
  Li2955  Li1+  0.903  0.486  0.703  0.010
  Li2097  Li1+  0.703  0.286  0.103  0.010
  Li664  Li1+  0.269  0.089  0.183  0.010
  Li2800  Li1+  0.897  0.314  0.497  0.010
  Li1239  Li1+  0.303  0.886  0.503  0.011
  Li2410  Li1+  0.697  0.714  0.497  0.011
  Li813  Li1+  0.200  0.300  0.200  0.011
  Li2617  Li1+  0.903  0.086  0.103  0.011
  Li2981  Li1+  0.903  0.486  0.903  0.011
  Li1633  Li1+  0.517  0.400  0.403  0.011
  Li1083  Li1+  0.303  0.686  0.303  0.011
  Li3138  Li1+  0.897  0.914  0.097  0.011
  Li144  Li1+  0.069  0.289  0.183  0.011
  Li2722  Li1+  0.897  0.114  0.897  0.011
  Li976  Li1+  0.269  0.489  0.583  0.012
  Li2618  Li1+  0.897  0.114  0.097  0.012
  Li2254  Li1+  0.697  0.514  0.297  0.012
  Li1640  Li1+  0.400  0.400  0.700  0.012
  Li492  Li1+  0.131  0.714  0.619  0.012
  Li3059  Li1+  0.903  0.686  0.503  0.013
  Li2904  Li1+  0.897  0.514  0.297  0.013
  Li1993  Li1+  0.703  0.086  0.303  0.013
  Li1395  Li1+  0.503  0.086  0.703  0.013
  Li329  Li1+  0.103  0.486  0.503  0.013
  Li3066  Li1+  0.931  0.714  0.419  0.013
  Li2513  Li1+  0.703  0.886  0.303  0.014
  Li1087  Li1+  0.317  0.600  0.203  0.014
  Li2644  Li1+  0.897  0.114  0.297  0.014
  Li534  Li1+  0.069  0.889  0.183  0.014
  Li574  Li1+  -0.000  0.800  0.500  0.014
  Li382  Li1+  0.097  0.514  0.897  0.014
  Li700  Li1+  0.331  0.114  0.219  0.014
  Li2283  Li1+  0.717  0.400  0.403  0.014
  Li1680  Li1+  0.483  0.400  0.997  0.014
  Li1862  Li1+  0.483  0.800  0.397  0.014
  Li404  Li1+  0.069  0.689  0.183  0.015
  Li1782  Li1+  0.469  0.689  0.783  0.015
  Li2546  Li1+  0.731  0.914  0.419  0.015
  Li170  Li1+  0.069  0.289  0.383  0.015
  Li1867  Li1+  0.517  0.800  0.203  0.015
  Li2101  Li1+  0.717  0.200  0.003  0.016
  Li139  Li1+  0.100  0.300  0.000  0.016
  Li1240  Li1+  0.297  0.914  0.497  0.016
  Li1671  Li1+  0.400  0.500  0.800  0.016
  Li1191  Li1+  0.317  0.800  0.003  0.016
  Li1707  Li1+  0.503  0.686  0.103  0.016
  Li1321  Li1+  0.517  -0.000  0.003  0.016
  Li719  Li1+  0.303  0.086  0.503  0.017
  Li3241  Li1+  0.903  0.886  0.903  0.017
  Li1964  Li1+  0.669  0.089  0.183  0.017
  Li28  Li1+  -0.000  -0.000  0.300  0.017
  Li2205  Li1+  0.717  0.200  0.803  0.017
  Li1656  Li1+  0.497  0.514  0.697  0.017
  Li300  Li1+  0.069  0.489  0.383  0.017
  Li927  Li1+  0.303  0.486  0.103  0.017
  Li2045  Li1+  0.703  0.086  0.703  0.017
  Li771  Li1+  0.303  0.086  0.903  0.017
  Li2669  Li1+  0.903  0.086  0.503  0.018
  Li1655  Li1+  0.503  0.486  0.703  0.018
  Li199  Li1+  0.103  0.286  0.503  0.018
  Li236  Li1+  -0.000  0.200  0.900  0.018
  Li1685  Li1+  0.517  0.400  0.803  0.018
  Li1837  Li1+  0.503  0.886  0.103  0.018
  Li3164  Li1+  0.897  0.914  0.297  0.018
  Li537  Li1+  0.103  0.886  0.103  0.019
  Li96  Li1+  0.097  0.114  0.697  0.019
  Li3008  Li1+  0.897  0.714  0.097  0.019
  Li1214  Li1+  0.297  0.914  0.297  0.019
  Li2461  Li1+  0.703  0.686  0.903  0.019
  Li1224  Li1+  0.200  0.800  0.500  0.019
  Li2982  Li1+  0.897  0.514  0.897  0.019
  Li459  Li1+  0.103  0.686  0.503  0.020
  Li1262  Li1+  0.269  0.889  0.783  0.020
  Li3101  Li1+  0.800  0.700  0.800  0.020
  Li2071  Li1+  0.703  0.086  0.903  0.020
  Li2383  Li1+  0.703  0.686  0.303  0.020
  Li2566  Li1+  0.697  0.914  0.697  0.020
  Li1811  Li1+  0.503  0.686  0.903  0.021
  Li1604  Li1+  0.497  0.514  0.297  0.021
  Li1681  Li1+  0.503  0.486  0.903  0.022
  Li823  Li1+  0.303  0.286  0.303  0.022
  Li333  Li1+  0.117  0.400  0.403  0.022
  Li2591  Li1+  0.703  0.886  0.903  0.022
  Li641  Li1+  0.103  0.886  0.903  0.022
  Li2877  Li1+  0.903  0.486  0.103  0.022
  Li2432  Li1+  0.669  0.689  0.783  0.022
  Li1990  Li1+  0.669  0.089  0.383  0.022
  Li1187  Li1+  0.303  0.886  0.103  0.023
  Li538  Li1+  0.097  0.914  0.097  0.023
  Li2127  Li1+  0.717  0.200  0.203  0.023
  Li1402  Li1+  0.531  0.114  0.619  0.023
  Li2774  Li1+  0.897  0.314  0.297  0.023
  Li35  Li1+  0.100  0.100  0.200  0.024
  Li563  Li1+  0.103  0.886  0.303  0.024
  Li1057  Li1+  0.303  0.686  0.103  0.024
  Li2279  Li1+  0.703  0.486  0.503  0.025
  Li2305  Li1+  0.703  0.486  0.703  0.025
  Li2357  Li1+  0.703  0.686  0.103  0.025
  Li979  Li1+  0.303  0.486  0.503  0.025
  Li1158  Li1+  0.269  0.689  0.983  0.026
  Li2825  Li1+  0.903  0.286  0.703  0.026
  Li1760  Li1+  0.497  0.714  0.497  0.026
  Li1600  Li1+  0.469  0.489  0.383  0.026
  Li1941  Li1+  0.503  0.886  0.903  0.026
  Li352  Li1+  0.069  0.489  0.783  0.026
  Li1217  Li1+  0.317  0.800  0.203  0.027
  Li1109  Li1+  0.303  0.686  0.503  0.027
  Li1366  Li1+  0.469  0.089  0.583  0.027
  Li3037  Li1+  0.917  0.600  0.203  0.027
  Li121  Li1+  0.103  0.086  0.903  0.027
  Li901  Li1+  0.303  0.286  0.903  0.027
  Li1283  Li1+  0.300  0.900  0.800  0.028
  Li2250  Li1+  0.669  0.489  0.383  0.029
  Li1967  Li1+  0.703  0.086  0.103  0.031
  Li2253  Li1+  0.703  0.486  0.303  0.031
  Li2087  Li1+  0.600  0.300  0.000  0.031
  Li128  Li1+  0.131  0.114  0.819  0.031
  Li2848  Li1+  0.869  0.289  0.983  0.031
  Li1448  Li1+  0.497  0.314  0.097  0.032
  Li1704  Li1+  0.469  0.689  0.183  0.032
  Li853  Li1+  0.317  0.200  0.403  0.032
  Li1808  Li1+  0.469  0.689  0.983  0.033
  Li2227  Li1+  0.703  0.486  0.103  0.033
  Li1458  Li1+  0.400  0.200  0.300  0.034
  Li1968  Li1+  0.697  0.114  0.097  0.035
  Li2175  Li1+  0.703  0.286  0.703  0.035
  Li2878  Li1+  0.897  0.514  0.097  0.035
  Li1314  Li1+  0.469  0.089  0.183  0.036
  Li1834  Li1+  0.469  0.889  0.183  0.036
  Li2670  Li1+  0.897  0.114  0.497  0.037
  Li59  Li1+  -0.000  0.100  0.400  0.037
  Li1250  Li1+  0.200  0.800  0.700  0.038
  Li232  Li1+  0.131  0.314  0.619  0.039
  Li2123  Li1+  0.703  0.286  0.303  0.043
  Li716  Li1+  0.269  0.089  0.583  0.043
  Li1328  Li1+  0.400  -0.000  0.300  0.044
  Li1333  Li1+  0.400  0.100  0.200  0.046
  Li2468  Li1+  0.731  0.714  0.819  0.047
  Li362  Li1+  0.131  0.514  0.619  0.048
  Li92  Li1+  0.069  0.089  0.783  0.049
  Li1915  Li1+  0.503  0.886  0.703  0.050
  Li1714  Li1+  0.531  0.714  0.019  0.051
  Li485  Li1+  0.103  0.686  0.703  0.052
  Li501  Li1+  -0.000  0.700  0.800  0.052
  Li111  Li1+  -0.000  0.100  0.800  0.053
  Li2302  Li1+  0.669  0.489  0.783  0.053
  Li674  Li1+  0.331  0.114  0.019  0.053
  Li995  Li1+  0.200  0.500  0.600  0.053
  Li2562  Li1+  0.669  0.889  0.783  0.055
  Li189  Li1+  -0.000  0.300  0.400  0.055
  Li1255  Li1+  0.200  0.900  0.600  0.056
  Li841  Li1+  0.300  0.300  0.400  0.056
  Li919  Li1+  0.300  0.500  0.000  0.056
  Li2988  Li1+  0.931  0.514  0.819  0.056
  Li898  Li1+  0.269  0.289  0.983  0.056
  Li1064  Li1+  0.331  0.714  0.019  0.057
  Li2799  Li1+  0.903  0.286  0.503  0.058
  Li2094  Li1+  0.669  0.289  0.183  0.059
  Li1392  Li1+  0.469  0.089  0.783  0.059
  Li1886  Li1+  0.469  0.889  0.583  0.059
  Li2113  Li1+  0.600  0.300  0.200  0.060
  Li2598  Li1+  0.731  0.914  0.819  0.061
  Li2458  Li1+  0.669  0.689  0.983  0.063
  Li2420  Li1+  0.600  0.600  0.700  0.064
  Li1246  Li1+  0.331  0.914  0.419  0.064
  Li711  Li1+  0.300  0.100  0.400  0.065
  Li605  Li1+  -0.000  0.900  0.600  0.065
  Li3056  Li1+  0.869  0.689  0.583  0.065
  Li1120  Li1+  0.200  0.600  0.700  0.066
  Li1302  Li1+  0.400  -0.000  0.100  0.067
  Li69  Li1+  0.103  0.086  0.503  0.071
  Li262  Li1+  -0.000  0.400  0.100  0.072
  Li2852  Li1+  0.897  0.314  0.897  0.072
  Li3004  Li1+  0.869  0.689  0.183  0.073
  Li1444  Li1+  0.469  0.289  0.183  0.076
  Li80  Li1+  -0.000  -0.000  0.700  0.077
  Li875  Li1+  0.303  0.286  0.703  0.078
  Li1818  Li1+  0.531  0.714  0.819  0.078
  Li1307  Li1+  0.400  0.100  0.000  0.079
  Li2926  Li1+  0.869  0.489  0.583  0.079
  Li1610  Li1+  0.531  0.514  0.219  0.080
  Li2312  Li1+  0.731  0.514  0.619  0.080
  Li778  Li1+  0.331  0.114  0.819  0.080
  Li2134  Li1+  0.600  0.200  0.500  0.082
  Li2900  Li1+  0.869  0.489  0.383  0.082
  Li1874  Li1+  0.400  0.800  0.500  0.082
  Li2286  Li1+  0.731  0.514  0.419  0.083
  Li1236  Li1+  0.269  0.889  0.583  0.087
  Li544  Li1+  0.131  0.914  0.019  0.088
  Li2172  Li1+  0.669  0.289  0.783  0.090
  Li2160  Li1+  0.600  0.200  0.700  0.090
  Li196  Li1+  0.069  0.289  0.583  0.092
  Li1496  Li1+  0.469  0.289  0.583  0.093
  Li789  Li1+  0.300  0.300  0.000  0.093
  Li430  Li1+  0.069  0.689  0.383  0.093
  Li1873  Li1+  0.400  0.900  0.500  0.094
  Li274  Li1+  0.069  0.489  0.183  0.094
  Li3030  Li1+  0.869  0.689  0.383  0.095
  Li990  Li1+  0.200  0.400  0.700  0.096
  Li326  Li1+  0.069  0.489  0.583  0.097
  Li33  Li1+  -0.000  0.100  0.200  0.099
  Li1853  Li1+  0.400  0.900  0.200  0.100
  Li2224  Li1+  0.669  0.489  0.183  0.101
  Li2718  Li1+  0.869  0.089  0.983  0.103
  Li820  Li1+  0.269  0.289  0.383  0.106
  Li3108  Li1+  0.869  0.689  0.983  0.107
  Li1411  Li1+  0.400  0.100  0.800  0.108
  Li986  Li1+  0.331  0.514  0.419  0.108
  Li1184  Li1+  0.269  0.889  0.183  0.110
  Li314  Li1+  -0.000  0.400  0.500  0.111
  Li14  Li1+  0.069  0.089  0.183  0.115
  Li2198  Li1+  0.669  0.289  0.983  0.115
  Li2624  Li1+  0.931  0.114  0.019  0.119
  Li1860  Li1+  0.469  0.889  0.383  0.119
  Li2592  Li1+  0.697  0.914  0.897  0.119
  Li2692  Li1+  0.869  0.089  0.783  0.120
  Li638  Li1+  0.069  0.889  0.983  0.120
  Li3144  Li1+  0.931  0.914  0.019  0.120
  Li2416  Li1+  0.731  0.714  0.419  0.121
  Li76  Li1+  0.131  0.114  0.419  0.122
  Li2832  Li1+  0.931  0.314  0.619  0.122
  Li378  Li1+  0.069  0.489  0.983  0.122
  Li726  Li1+  0.331  0.114  0.419  0.123
  Li66  Li1+  0.069  0.089  0.583  0.123
  Li1168  Li1+  0.331  0.714  0.819  0.124
  Li912  Li1+  0.200  0.400  0.100  0.124
  Li1588  Li1+  0.400  0.400  0.300  0.125
  Li1697  Li1+  0.400  0.700  0.000  0.126
  Li2687  Li1+  0.900  0.100  0.600  0.127
  Li1132  Li1+  0.269  0.689  0.783  0.128
  Li2910  Li1+  0.931  0.514  0.219  0.128
  Li2146  Li1+  0.669  0.289  0.583  0.129
  Li154  Li1+  0.131  0.314  0.019  0.129
  Li1725  Li1+  0.500  0.700  0.200  0.130
  Li106  Li1+  -0.000  -0.000  0.900  0.131
  Li3216  Li1+  0.897  0.914  0.697  0.133
  Li3186  Li1+  0.869  0.889  0.583  0.134
  Li2042  Li1+  0.669  0.089  0.783  0.136
  Li729  Li1+  0.200  0.100  0.700  0.137
  Li808  Li1+  0.200  0.200  0.300  0.137
  Li1075  Li1+  0.300  0.700  0.200  0.137
  Li2238  Li1+  0.600  0.400  0.300  0.137
  Li118  Li1+  0.069  0.089  0.983  0.137
  Li2442  Li1+  0.731  0.714  0.619  0.141
  Li997  Li1+  0.300  0.500  0.600  0.142
  Li1558  Li1+  0.531  0.314  0.819  0.142
  Li2269  Li1+  0.600  0.500  0.400  0.145
  Li1093  Li1+  0.200  0.700  0.500  0.145
  Li392  Li1+  -0.000  0.600  0.100  0.147
  Li469  Li1+  -0.000  0.700  0.700  0.147
  Li2572  Li1+  0.731  0.914  0.619  0.148
  Li934  Li1+  0.331  0.514  0.019  0.151
  Li2588  Li1+  0.669  0.889  0.983  0.152
  Li2338  Li1+  0.731  0.514  0.819  0.153
  Li652  Li1+  0.200  -0.000  0.100  0.154
  Li3160  Li1+  0.869  0.889  0.383  0.154
  Li1948  Li1+  0.531  0.914  0.819  0.156
  Li2052  Li1+  0.731  0.114  0.619  0.157
  Li2108  Li1+  0.600  0.200  0.300  0.161
  Li222  Li1+  0.069  0.289  0.783  0.164
  Li1288  Li1+  0.269  0.889  0.983  0.165
  Li1324  Li1+  0.531  0.114  0.019  0.167
  Li2120  Li1+  0.669  0.289  0.383  0.170
  Li2035  Li1+  0.600  0.100  0.600  0.171
  Li2666  Li1+  0.869  0.089  0.583  0.173
  Li2234  Li1+  0.731  0.514  0.019  0.173
  Li2276  Li1+  0.669  0.489  0.583  0.174
  Li310  Li1+  0.131  0.514  0.219  0.174
  Li3233  Li1+  0.900  0.900  0.800  0.178
  Li1974  Li1+  0.731  0.114  0.019  0.178
  Li3200  Li1+  0.800  0.800  0.700  0.178
  Li2451  Li1+  0.600  0.700  0.800  0.181
  Li1298  Li1+  0.331  0.914  0.819  0.181
  Li3212  Li1+  0.869  0.889  0.783  0.181
  Li496  Li1+  -0.000  0.600  0.900  0.183
  Li2328  Li1+  0.669  0.489  0.983  0.184
  Li2952  Li1+  0.869  0.489  0.783  0.188
  Li761  Li1+  0.200  0.100  0.800  0.189
  Li1692  Li1+  0.400  0.600  0.100  0.191
  Li3070  Li1+  0.800  0.600  0.700  0.192
  Li709  Li1+  0.200  0.100  0.400  0.193
  Li752  Li1+  0.331  0.114  0.619  0.196
  Li3075  Li1+  0.800  0.700  0.600  0.198
  Li1354  Li1+  0.400  -0.000  0.500  0.198
  Li1548  Li1+  0.469  0.289  0.983  0.198
  Li768  Li1+  0.269  0.089  0.983  0.200
  Li2978  Li1+  0.869  0.489  0.983  0.200
  Li1678  Li1+  0.469  0.489  0.983  0.202
  Li475  Li1+  -0.000  0.700  0.600  0.203
  Li1515  Li1+  0.400  0.300  0.600  0.204
  Li191  Li1+  0.100  0.300  0.400  0.205
  Li626  Li1+  -0.000  0.800  0.900  0.206
  Li503  Li1+  0.100  0.700  0.800  0.209
  Li206  Li1+  0.131  0.314  0.419  0.210
  Li3231  Li1+  0.800  0.900  0.800  0.211
  Li1985  Li1+  0.700  0.100  0.200  0.211
  Li2770  Li1+  0.869  0.289  0.383  0.211
  Li7  Li1+  -0.000  0.100  0.000  0.212
  Li1756  Li1+  0.469  0.689  0.583  0.212
  Li3226  Li1+  0.800  0.800  0.900  0.214
  Li2130  Li1+  0.731  0.314  0.219  0.215
  Li2822  Li1+  0.869  0.289  0.783  0.217
  Li893  Li1+  0.300  0.300  0.800  0.218
  Li1691  Li1+  0.400  0.700  0.100  0.218
  Li1432  Li1+  0.400  0.200  0.100  0.220
  Li132  Li1+  -0.000  0.200  0.100  0.223
  Li683  Li1+  0.200  0.100  0.200  0.223
  Li2063  Li1+  0.700  0.100  0.800  0.228
  Li1406  Li1+  0.400  -0.000  0.900  0.229
  Li2685  Li1+  0.800  0.100  0.600  0.230
  Li267  Li1+  -0.000  0.500  0.000  0.230
  Li1506  Li1+  0.531  0.314  0.419  0.231
  Li2347  Li1+  0.600  0.700  0.000  0.231
  Li1766  Li1+  0.531  0.714  0.419  0.232
  Li2295  Li1+  0.600  0.500  0.600  0.235
  Li1881  Li1+  0.500  0.900  0.400  0.235
  Li846  Li1+  0.269  0.289  0.583  0.239
  Li1359  Li1+  0.400  0.100  0.400  0.240
  Li3196  Li1+  0.931  0.914  0.419  0.241
  Li2208  Li1+  0.731  0.314  0.819  0.243
  Li2744  Li1+  0.869  0.289  0.183  0.244
  Li657  Li1+  0.200  0.100  0.000  0.247
  Li1730  Li1+  0.469  0.689  0.383  0.247
  Li3096  Li1+  0.800  0.600  0.900  0.249
  Li924  Li1+  0.269  0.489  0.183  0.249
  Li960  Li1+  0.331  0.514  0.219  0.250
  Li756  Li1+  0.200  -0.000  0.900  0.252
  Li859  Li1+  0.200  0.300  0.700  0.252
  Li1532  Li1+  0.531  0.314  0.619  0.254
  Li1938  Li1+  0.469  0.889  0.983  0.257
  Li1829  Li1+  0.500  0.900  0.000  0.258
  Li1912  Li1+  0.469  0.889  0.783  0.260
  Li2260  Li1+  0.731  0.514  0.219  0.261
  Li1272  Li1+  0.331  0.914  0.619  0.265
  Li1569  Li1+  0.500  0.500  0.000  0.266
  Li787  Li1+  0.200  0.300  0.000  0.267
  Li449  Li1+  -0.000  0.700  0.400  0.268
  Li1522  Li1+  0.469  0.289  0.783  0.272
  Li2706  Li1+  0.800  -0.000  0.900  0.273
  Li2576  Li1+  0.600  0.800  0.900  0.275
  Li555  Li1+  0.100  0.900  0.200  0.281
  Li2139  Li1+  0.600  0.300  0.400  0.281
  Li1619  Li1+  0.400  0.500  0.400  0.283
  Li1595  Li1+  0.500  0.500  0.200  0.283
  Li2654  Li1+  0.800  -0.000  0.500  0.283
  Li2191  Li1+  0.600  0.300  0.800  0.284
  Li2141  Li1+  0.700  0.300  0.400  0.285
  Li943  Li1+  0.200  0.500  0.200  0.285
  Li1177  Li1+  0.200  0.900  0.000  0.288
  Li2167  Li1+  0.700  0.300  0.600  0.289
  Li677  Li1+  0.200  0.100  0.300  0.290
  Li1751  Li1+  0.500  0.700  0.400  0.291
  Li839  Li1+  0.200  0.300  0.400  0.291
  Li2680  Li1+  0.800  -0.000  0.700  0.291
  Li2874  Li1+  0.869  0.489  0.183  0.292
  Li2380  Li1+  0.669  0.689  0.383  0.292
  Li1413  Li1+  0.500  0.100  0.800  0.294
  Li2082  Li1+  0.600  0.200  0.100  0.296
  Li131  Li1+  -0.000  0.300  0.100  0.296
  Li1827  Li1+  0.400  0.900  0.000  0.297
  Li1536  Li1+  0.400  0.200  0.900  0.300
  Li3238  Li1+  0.869  0.889  0.983  0.300
  Li805  Li1+  0.375  0.328  0.050  0.301
  Li2068  Li1+  0.669  0.089  0.983  0.303
  Li2945  Li1+  0.800  0.500  0.600  0.307
  Li340  Li1+  -0.000  0.400  0.700  0.307
  Li1879  Li1+  0.400  0.900  0.400  0.309
  Li1049  Li1+  0.300  0.700  0.000  0.310
  Li834  Li1+  0.200  0.200  0.500  0.311
  Li371  Li1+  -0.000  0.500  0.800  0.311
  Li2165  Li1+  0.600  0.300  0.600  0.311
  Li2843  Li1+  0.900  0.300  0.800  0.312
  Li184  Li1+  -0.000  0.200  0.500  0.312
  Li2290  Li1+  0.600  0.400  0.700  0.313
  Li1699  Li1+  0.500  0.700  0.000  0.314
  Li1463  Li1+  0.400  0.300  0.200  0.323
  Li2962  Li1+  0.931  0.514  0.619  0.326
  Li2817  Li1+  0.900  0.300  0.600  0.327
  Li2520  Li1+  0.731  0.914  0.219  0.327
  Li2510  Li1+  0.669  0.889  0.383  0.328
  Li2810  Li1+  0.800  0.200  0.700  0.329
  Li856  Li1+  0.331  0.314  0.419  0.330
  Li3103  Li1+  0.900  0.700  0.800  0.331
  Li945  Li1+  0.300  0.500  0.200  0.332
  Li2479  Li1+  0.700  0.900  0.000  0.332
  Li581  Li1+  0.100  0.900  0.400  0.338
  Li2264  Li1+  0.600  0.400  0.500  0.340
  Li1567  Li1+  0.400  0.500  0.000  0.340
  Li3181  Li1+  0.900  0.900  0.400  0.341
  Li2027  Li1+  0.775  0.128  0.450  0.341
  Li2104  Li1+  0.731  0.314  0.019  0.344
  Li2365  Li1+  0.775  0.728  0.050  0.348
  Li2858  Li1+  0.931  0.314  0.819  0.350
  Li1922  Li1+  0.531  0.914  0.619  0.351
  Li1688  Li1+  0.531  0.514  0.819  0.351
  Li3134  Li1+  0.869  0.889  0.183  0.352
  Li2316  Li1+  0.600  0.400  0.900  0.355
  Li2  Li1+  -0.000  -0.000  0.100  0.356
  Li570  Li1+  0.131  0.914  0.219  0.356
  Li2786  Li1+  0.822  0.275  0.550  0.358
  Li2115  Li1+  0.700  0.300  0.200  0.358
  Li425  Li1+  0.100  0.700  0.200  0.358
  Li1013  Li1+  0.375  0.528  0.650  0.360
  Li1844  Li1+  0.531  0.914  0.019  0.363
  Li964  Li1+  0.200  0.400  0.500  0.364
  Li1626  Li1+  0.469  0.489  0.583  0.366
  Li1484  Li1+  0.400  0.200  0.500  0.368
  Li1749  Li1+  0.400  0.700  0.400  0.369
  Li1068  Li1+  0.200  0.600  0.300  0.370
  Li2445  Li1+  0.600  0.700  0.900  0.370
  Li2078  Li1+  0.731  0.114  0.819  0.374
  Li1744  Li1+  0.400  0.600  0.500  0.374
  Li1584  Li1+  0.531  0.514  0.019  0.375
  Li3148  Li1+  0.800  0.800  0.300  0.375
  Li3179  Li1+  0.800  0.900  0.400  0.376
  Li1257  Li1+  0.300  0.900  0.600  0.383
  Li440  Li1+  0.131  0.714  0.219  0.383
  Li2243  Li1+  0.600  0.500  0.200  0.388
  Li596  Li1+  0.131  0.914  0.419  0.388
  Li1210  Li1+  0.269  0.889  0.383  0.391
  Li3044  Li1+  0.800  0.600  0.500  0.394
  Li1091  Li1+  0.375  0.728  0.250  0.394
  Li2536  Li1+  0.669  0.889  0.583  0.394
  Li2895  Li1+  0.900  0.500  0.200  0.399
  Li865  Li1+  0.200  0.300  0.600  0.401
  Li2640  Li1+  0.869  0.089  0.383  0.404
  Li1385  Li1+  0.400  0.100  0.600  0.406
  Li735  Li1+  0.200  0.100  0.600  0.408
  Li2001  Li1+  0.775  0.128  0.250  0.410
  Li2193  Li1+  0.700  0.300  0.800  0.412
  Li2888  Li1+  0.800  0.400  0.300  0.414
  Li2494  Li1+  0.731  0.914  0.019  0.416
  Li2182  Li1+  0.731  0.314  0.619  0.417
  Li908  Li1+  0.331  0.314  0.819  0.419
  Li2156  Li1+  0.731  0.314  0.419  0.421
  Li2089  Li1+  0.700  0.300  0.000  0.423
  Li1380  Li1+  0.400  -0.000  0.700  0.427
  Li2702  Li1+  0.931  0.114  0.619  0.429
  Li1429  Li1+  0.575  0.128  0.850  0.430
  Li2557  Li1+  0.700  0.900  0.600  0.431
  Li2030  Li1+  0.600  -0.000  0.700  0.437
  Li2344  Li1+  0.622  0.675  0.150  0.441
  Li2185  Li1+  0.600  0.300  0.900  0.442
  Li2919  Li1+  0.800  0.500  0.400  0.445
  Li2966  Li1+  0.800  0.400  0.900  0.445
  Li1564  Li1+  0.422  0.475  0.150  0.446
  Li1741  Li1+  0.575  0.728  0.250  0.447
  Li1142  Li1+  0.331  0.714  0.619  0.448
  Li2867  Li1+  0.800  0.500  0.000  0.449
  Li1896  Li1+  0.531  0.914  0.419  0.451
  Li518  Li1+  0.131  0.714  0.819  0.462
  Li1665  Li1+  0.400  0.500  0.900  0.463
  Li2947  Li1+  0.900  0.500  0.600  0.467
  Li1457  Li1+  0.400  0.300  0.300  0.472
  Li2354  Li1+  0.669  0.689  0.183  0.472
  Li1959  Li1+  0.700  0.100  0.000  0.475
  Li366  Li1+  -0.000  0.400  0.900  0.479
  Li2321  Li1+  0.600  0.500  0.800  0.482
  Li470  Li1+  -0.000  0.600  0.700  0.482
  Li1309  Li1+  0.500  0.100  0.000  0.483
  Li2401  Li1+  0.700  0.700  0.400  0.485
  Li54  Li1+  -0.000  -0.000  0.500  0.485
  Li1  Li1+  -0.000  0.100  0.100  0.486
  Li2029  Li1+  0.600  0.100  0.700  0.489
  Li1489  Li1+  0.400  0.300  0.400  0.490
  Li2630  Li1+  0.822  0.075  0.350  0.493
  Li2375  Li1+  0.700  0.700  0.200  0.494
  Li1574  Li1+  0.469  0.489  0.183  0.497
  Li3023  Li1+  0.800  0.700  0.200  0.498
  Li1073  Li1+  0.200  0.700  0.200  0.498
  Li1041  Li1+  0.200  0.700  0.100  0.505
  Li737  Li1+  0.300  0.100  0.600  0.509
  Li2399  Li1+  0.600  0.700  0.400  0.513
  Li345  Li1+  -0.000  0.500  0.600  0.514
  Li678  Li1+  0.200  -0.000  0.300  0.518
  Li3129  Li1+  0.900  0.900  0.000  0.519
  Li1198  Li1+  0.200  0.800  0.300  0.523
  Li3124  Li1+  0.822  0.875  0.150  0.524
  Li1673  Li1+  0.500  0.500  0.800  0.525
  Li2500  Li1+  0.622  0.875  0.350  0.528
  Li2245  Li1+  0.700  0.500  0.200  0.528
  Li2446  Li1+  0.600  0.600  0.900  0.530
  Li519  Li1+  0.175  0.728  0.850  0.531
  Li1801  Li1+  0.400  0.700  0.800  0.532
  Li1231  Li1+  0.300  0.900  0.400  0.532
  Li3174  Li1+  0.800  0.800  0.500  0.533
  Li2796  Li1+  0.869  0.289  0.583  0.538
  Li1740  Li1+  0.531  0.714  0.219  0.541
  Li1428  Li1+  0.531  0.114  0.819  0.544
  Li1926  Li1+  0.400  0.800  0.900  0.545
  Li1897  Li1+  0.575  0.928  0.450  0.546
  Li3205  Li1+  0.800  0.900  0.600  0.548
  Li293  Li1+  -0.000  0.500  0.200  0.550
  Li418  Li1+  -0.000  0.600  0.300  0.550
  Li1933  Li1+  0.500  0.900  0.800  0.551
  Li1143  Li1+  0.375  0.728  0.650  0.551
  Li295  Li1+  0.100  0.500  0.200  0.551
  Li2971  Li1+  0.800  0.500  0.800  0.553
  Li2526  Li1+  0.622  0.875  0.550  0.554
  Li1200  Li1+  0.222  0.875  0.350  0.557
  Li1543  Li1+  0.500  0.300  0.800  0.559
  Li1616  Li1+  0.422  0.475  0.550  0.560
  Li2183  Li1+  0.775  0.328  0.650  0.563
  Li2495  Li1+  0.775  0.928  0.050  0.565
  Li1203  Li1+  0.200  0.900  0.200  0.565
  Li2703  Li1+  0.975  0.128  0.650  0.567
  Li2862  Li1+  0.800  0.400  0.100  0.567
  Li2157  Li1+  0.775  0.328  0.450  0.569
  Li2992  Li1+  0.800  0.600  0.100  0.570
  Li1593  Li1+  0.400  0.500  0.200  0.572
  Li1517  Li1+  0.500  0.300  0.600  0.573
  Li909  Li1+  0.375  0.328  0.850  0.573
  Li2453  Li1+  0.700  0.700  0.800  0.578
  Li61  Li1+  0.100  0.100  0.400  0.580
  Li241  Li1+  -0.000  0.300  0.800  0.582
  Li2079  Li1+  0.775  0.128  0.850  0.583
  Li704  Li1+  0.200  -0.000  0.500  0.585
  Li2661  Li1+  0.900  0.100  0.400  0.585
  Li1614  Li1+  0.400  0.400  0.500  0.586
  Li2628  Li1+  0.800  -0.000  0.300  0.586
  Li1229  Li1+  0.200  0.900  0.400  0.588
  Li597  Li1+  0.175  0.928  0.450  0.589
  Li579  Li1+  -0.000  0.900  0.400  0.589
  Li2000  Li1+  0.731  0.114  0.219  0.590
  Li2711  Li1+  0.800  0.100  0.800  0.591
  Li495  Li1+  -0.000  0.700  0.900  0.595
  Li215  Li1+  -0.000  0.300  0.600  0.599
  Li1585  Li1+  0.575  0.528  0.050  0.599
  Li2555  Li1+  0.600  0.900  0.600  0.600
  Li1905  Li1+  0.400  0.900  0.600  0.600
  Li1090  Li1+  0.331  0.714  0.219  0.602
  Li3018  Li1+  0.800  0.600  0.300  0.603
  Li1510  Li1+  0.400  0.200  0.700  0.603
  Li2581  Li1+  0.600  0.900  0.800  0.606
  Li3049  Li1+  0.800  0.700  0.400  0.612
  Li2219  Li1+  0.700  0.500  0.000  0.613
  Li441  Li1+  0.175  0.728  0.250  0.617
  Li1171  Li1+  0.200  0.900  0.100  0.618
  Li1541  Li1+  0.400  0.300  0.800  0.619
  Li2105  Li1+  0.775  0.328  0.050  0.621
  Li1845  Li1+  0.575  0.928  0.050  0.624
  Li1067  Li1+  0.200  0.700  0.300  0.624
  Li2056  Li1+  0.600  -0.000  0.900  0.626
  Li1822  Li1+  0.400  0.800  0.100  0.628
  Li1821  Li1+  0.400  0.900  0.100  0.629
  Li2737  Li1+  0.800  0.300  0.000  0.630
  Li1689  Li1+  0.575  0.528  0.850  0.630
  Li1647  Li1+  0.500  0.500  0.600  0.630
  Li2531  Li1+  0.700  0.900  0.400  0.634
  Li1012  Li1+  0.331  0.514  0.619  0.634
  Li659  Li1+  0.300  0.100  0.000  0.634
  Li1900  Li1+  0.400  0.800  0.700  0.635
  Li210  Li1+  -0.000  0.200  0.700  0.635
  Li2859  Li1+  0.975  0.328  0.850  0.638
  Li2477  Li1+  0.600  0.900  0.000  0.640
  Li571  Li1+  0.175  0.928  0.250  0.644
  Li3153  Li1+  0.800  0.900  0.200  0.645
  Li2734  Li1+  0.822  0.275  0.150  0.647
  Li1931  Li1+  0.400  0.900  0.800  0.648
  Li3155  Li1+  0.900  0.900  0.200  0.648
  Li1923  Li1+  0.575  0.928  0.650  0.649
  Li971  Li1+  0.300  0.500  0.400  0.649
  Li2364  Li1+  0.731  0.714  0.019  0.652
  Li2607  Li1+  0.800  0.100  0.000  0.652
  Li1512  Li1+  0.422  0.275  0.750  0.654
  Li2963  Li1+  0.975  0.528  0.650  0.654
  Li2836  Li1+  0.800  0.200  0.900  0.656
  Li157  Li1+  -0.000  0.300  0.300  0.658
  Li2026  Li1+  0.731  0.114  0.419  0.659
  Li3228  Li1+  0.822  0.875  0.950  0.663
  Li2217  Li1+  0.600  0.500  0.000  0.664
  Li2529  Li1+  0.600  0.900  0.400  0.665
  Li2058  Li1+  0.622  0.075  0.950  0.665
  Li2370  Li1+  0.622  0.675  0.350  0.668
  Li857  Li1+  0.375  0.328  0.450  0.670
  Li2524  Li1+  0.600  0.800  0.500  0.672
  Li1153  Li1+  0.300  0.700  0.800  0.672
  Li2521  Li1+  0.775  0.928  0.250  0.673
  Li1902  Li1+  0.422  0.875  0.750  0.674
  Li804  Li1+  0.331  0.314  0.019  0.679
  Li2893  Li1+  0.800  0.500  0.200  0.681
  Li2864  Li1+  0.822  0.475  0.150  0.682
  Li2368  Li1+  0.600  0.600  0.300  0.688
  Li1119  Li1+  0.200  0.700  0.700  0.688
  Li2602  Li1+  0.800  -0.000  0.100  0.691
  Li1101  Li1+  0.300  0.700  0.400  0.696
  Li2583  Li1+  0.700  0.900  0.800  0.697
  Li527  Li1+  -0.000  0.900  0.000  0.700
  Li2373  Li1+  0.600  0.700  0.200  0.700
  Li1491  Li1+  0.500  0.300  0.400  0.700
  Li1957  Li1+  0.600  0.100  0.000  0.701
  Li1275  Li1+  0.200  0.900  0.900  0.704
  Li2342  Li1+  0.600  0.600  0.100  0.706
  Li2004  Li1+  0.600  -0.000  0.500  0.712
  Li2289  Li1+  0.600  0.500  0.700  0.714
  Li3051  Li1+  0.900  0.700  0.400  0.717
  Li1720  Li1+  0.422  0.675  0.350  0.717
  Li961  Li1+  0.375  0.528  0.250  0.718
  Li2812  Li1+  0.822  0.275  0.750  0.719
  Li85  Li1+  -0.000  0.100  0.600  0.719
  Li2942  Li1+  0.822  0.475  0.750  0.721
  Li1775  Li1+  0.400  0.700  0.600  0.721
  Li914  Li1+  0.222  0.475  0.150  0.721
  Li2261  Li1+  0.775  0.528  0.250  0.722
  Li1273  Li1+  0.375  0.928  0.650  0.729
  Li836  Li1+  0.222  0.275  0.550  0.729
  Li1587  Li1+  0.400  0.500  0.300  0.732
  Li2061  Li1+  0.600  0.100  0.800  0.732
  Li2973  Li1+  0.900  0.500  0.800  0.732
  Li3069  Li1+  0.800  0.700  0.700  0.732
  Li9  Li1+  0.100  0.100  0.000  0.733
  Li1928  Li1+  0.422  0.875  0.950  0.733
  Li1723  Li1+  0.400  0.700  0.200  0.734
  Li2763  Li1+  0.800  0.300  0.200  0.734
  Li529  Li1+  0.100  0.900  0.000  0.734
  Li1278  Li1+  0.222  0.875  0.950  0.736
  Li1538  Li1+  0.422  0.275  0.950  0.737
  Li1977  Li1+  0.600  0.100  0.300  0.738
  Li2760  Li1+  0.822  0.275  0.350  0.740
  Li212  Li1+  0.022  0.275  0.750  0.741
  Li2940  Li1+  0.800  0.400  0.700  0.742
  Li2297  Li1+  0.700  0.500  0.600  0.744
  Li1533  Li1+  0.575  0.328  0.650  0.746
  Li3197  Li1+  0.975  0.928  0.450  0.746
  Li3207  Li1+  0.900  0.900  0.600  0.746
  Li1746  Li1+  0.422  0.675  0.550  0.749
  Li3095  Li1+  0.800  0.700  0.900  0.749
  Li113  Li1+  0.100  0.100  0.800  0.749
  Li1668  Li1+  0.422  0.475  0.950  0.750
  Li2209  Li1+  0.775  0.328  0.850  0.750
  Li1767  Li1+  0.575  0.728  0.450  0.753
  Li2609  Li1+  0.900  0.100  0.000  0.756
  Li815  Li1+  0.300  0.300  0.200  0.756
  Li2765  Li1+  0.900  0.300  0.200  0.756
  Li2498  Li1+  0.600  0.800  0.300  0.758
  Li867  Li1+  0.300  0.300  0.600  0.761
  Li1507  Li1+  0.575  0.328  0.450  0.761
  Li3225  Li1+  0.800  0.900  0.900  0.762
  Li2968  Li1+  0.822  0.475  0.950  0.763
  Li1379  Li1+  0.400  0.100  0.700  0.767
  Li56  Li1+  0.022  0.075  0.550  0.768
  Li2732  Li1+  0.800  0.200  0.100  0.770
  Li2323  Li1+  0.700  0.500  0.800  0.773
  Li1276  Li1+  0.200  0.800  0.900  0.774
  Li2211  Li1+  0.600  0.500  0.100  0.776
  Li2318  Li1+  0.622  0.475  0.950  0.776
  Li758  Li1+  0.222  0.075  0.950  0.777
  Li2186  Li1+  0.600  0.200  0.900  0.778
  Li1353  Li1+  0.400  0.100  0.500  0.778
  Li2131  Li1+  0.775  0.328  0.250  0.781
  Li1325  Li1+  0.575  0.128  0.050  0.781
  Li2419  Li1+  0.600  0.700  0.700  0.785
  Li3202  Li1+  0.822  0.875  0.750  0.786
  Li1509  Li1+  0.400  0.300  0.700  0.788
  Li1777  Li1+  0.500  0.700  0.600  0.788
  Li753  Li1+  0.375  0.128  0.650  0.789
  Li2791  Li1+  0.900  0.300  0.400  0.789
  Li207  Li1+  0.175  0.328  0.450  0.789
  Li217  Li1+  0.100  0.300  0.600  0.791
  Li105  Li1+  -0.000  0.100  0.900  0.792
  Li1666  Li1+  0.400  0.400  0.900  0.794
  Li2549  Li1+  0.600  0.900  0.700  0.794
  Li521  Li1+  -0.000  0.900  0.100  0.795
  Li2235  Li1+  0.775  0.528  0.050  0.796
  Li1770  Li1+  0.400  0.600  0.700  0.796
  Li1179  Li1+  0.300  0.900  0.000  0.799
  Li2869  Li1+  0.900  0.500  0.000  0.800
  Li1718  Li1+  0.400  0.600  0.300  0.800
  Li1151  Li1+  0.200  0.700  0.800  0.800
  Li2110  Li1+  0.622  0.275  0.350  0.801
  Li1439  Li1+  0.500  0.300  0.000  0.802
  Li2656  Li1+  0.822  0.075  0.550  0.807
  Li807  Li1+  0.200  0.300  0.300  0.808
  Li1975  Li1+  0.775  0.128  0.050  0.808
  Li2339  Li1+  0.775  0.528  0.850  0.810
  Li2914  Li1+  0.800  0.400  0.500  0.812
  Li2266  Li1+  0.622  0.475  0.550  0.812
  Li311  Li1+  0.175  0.528  0.250  0.814
  Li1387  Li1+  0.500  0.100  0.600  0.814
  Li1949  Li1+  0.575  0.928  0.850  0.815
  Li347  Li1+  0.100  0.500  0.600  0.818
  Li1327  Li1+  0.400  0.100  0.300  0.818
  Li1299  Li1+  0.375  0.928  0.850  0.819
  Li2032  Li1+  0.622  0.075  0.750  0.820
  Li2271  Li1+  0.700  0.500  0.400  0.821
  Li885  Li1+  0.200  0.300  0.900  0.822
  Li3127  Li1+  0.800  0.900  0.000  0.822
  Li2682  Li1+  0.822  0.075  0.750  0.824
  Li2578  Li1+  0.622  0.875  0.950  0.828
  Li2427  Li1+  0.700  0.700  0.600  0.831
  Li368  Li1+  0.022  0.475  0.950  0.831
  Li1197  Li1+  0.200  0.900  0.300  0.833
  Li243  Li1+  0.100  0.300  0.800  0.836
  Li3150  Li1+  0.822  0.875  0.350  0.836
  Li1848  Li1+  0.400  0.800  0.300  0.837
  Li1122  Li1+  0.222  0.675  0.750  0.838
  Li165  Li1+  0.100  0.300  0.200  0.839
  Li443  Li1+  -0.000  0.700  0.500  0.840
  Li261  Li1+  -0.000  0.500  0.100  0.840
  Li2573  Li1+  0.775  0.928  0.650  0.842
  Li3122  Li1+  0.800  0.800  0.100  0.843
  Li2053  Li1+  0.775  0.128  0.650  0.843
  Li2136  Li1+  0.622  0.275  0.550  0.845
  Li2994  Li1+  0.822  0.675  0.150  0.846
  Li3176  Li1+  0.822  0.875  0.550  0.847
  Li628  Li1+  0.022  0.875  0.950  0.847
  Li1169  Li1+  0.375  0.728  0.850  0.847
  Li651  Li1+  0.200  0.100  0.100  0.848
  Li1850  Li1+  0.422  0.875  0.350  0.848
  Li935  Li1+  0.375  0.528  0.050  0.849
  Li2911  Li1+  0.975  0.528  0.250  0.849
  Li186  Li1+  0.022  0.275  0.550  0.849
  Li2443  Li1+  0.775  0.728  0.650  0.849
  Li3020  Li1+  0.822  0.675  0.350  0.850
  Li2789  Li1+  0.800  0.300  0.400  0.851
  Li1559  Li1+  0.575  0.328  0.850  0.851
  Li2815  Li1+  0.800  0.300  0.600  0.854
  Li420  Li1+  0.022  0.675  0.350  0.855
  Li1803  Li1+  0.500  0.700  0.800  0.857
  Li108  Li1+  0.022  0.075  0.950  0.859
  Li3145  Li1+  0.975  0.928  0.050  0.859
  Li2916  Li1+  0.822  0.475  0.550  0.861
  Li987  Li1+  0.375  0.528  0.450  0.862
  Li3098  Li1+  0.822  0.675  0.950  0.865
  Li2417  Li1+  0.775  0.728  0.450  0.866
  Li2997  Li1+  0.800  0.700  0.000  0.866
  Li2861  Li1+  0.800  0.500  0.100  0.866
  Li1486  Li1+  0.422  0.275  0.550  0.866
  Li2890  Li1+  0.822  0.475  0.350  0.867
  Li155  Li1+  0.175  0.328  0.050  0.870
  Li685  Li1+  0.300  0.100  0.200  0.870
  Li2081  Li1+  0.600  0.300  0.100  0.870
  Li1645  Li1+  0.400  0.500  0.600  0.871
  Li727  Li1+  0.375  0.128  0.450  0.873
  Li27  Li1+  -0.000  0.100  0.300  0.873
  Li1611  Li1+  0.575  0.528  0.250  0.874
  Li87  Li1+  0.100  0.100  0.600  0.874
  Li2708  Li1+  0.822  0.075  0.950  0.874
  Li2833  Li1+  0.975  0.328  0.650  0.875
  Li77  Li1+  0.175  0.128  0.450  0.876
  Li269  Li1+  0.100  0.500  0.000  0.878
  Li2188  Li1+  0.622  0.275  0.950  0.878
  Li2713  Li1+  0.900  0.100  0.800  0.879
  Li2838  Li1+  0.822  0.275  0.950  0.880
  Li2625  Li1+  0.975  0.128  0.050  0.880
  Li316  Li1+  0.022  0.475  0.550  0.881
  Li2784  Li1+  0.800  0.200  0.500  0.882
  Li2287  Li1+  0.775  0.528  0.450  0.884
  Li4  Li1+  0.022  0.075  0.150  0.884
  Li1174  Li1+  0.222  0.875  0.150  0.886
  Li3017  Li1+  0.800  0.700  0.300  0.887
  Li2214  Li1+  0.622  0.475  0.150  0.888
  Li810  Li1+  0.222  0.275  0.350  0.889
  Li1205  Li1+  0.300  0.900  0.200  0.890
  Li1335  Li1+  0.500  0.100  0.200  0.890
  Li2237  Li1+  0.600  0.500  0.300  0.891
  Li2999  Li1+  0.900  0.700  0.000  0.893
  Li1434  Li1+  0.422  0.275  0.150  0.893
  Li2841  Li1+  0.800  0.300  0.800  0.893
  Li2162  Li1+  0.622  0.275  0.750  0.894
  Li264  Li1+  0.022  0.475  0.150  0.895
  Li1819  Li1+  0.575  0.728  0.850  0.896
  Li3046  Li1+  0.822  0.675  0.550  0.896
  Li2292  Li1+  0.622  0.475  0.750  0.900
  Li1483  Li1+  0.400  0.300  0.500  0.903
  Li545  Li1+  0.175  0.928  0.050  0.904
  Li1437  Li1+  0.400  0.300  0.000  0.905
  Li3173  Li1+  0.800  0.900  0.500  0.905
  Li451  Li1+  0.100  0.700  0.400  0.907
  Li779  Li1+  0.375  0.128  0.850  0.911
  Li1226  Li1+  0.222  0.875  0.550  0.912
  Li3043  Li1+  0.800  0.700  0.500  0.914
  Li2313  Li1+  0.775  0.528  0.650  0.914
  Li1795  Li1+  0.400  0.700  0.900  0.917
  Li1769  Li1+  0.400  0.700  0.700  0.917
  Li2921  Li1+  0.900  0.500  0.400  0.918
  Li1952  Li1+  0.600  -0.000  0.100  0.919
  Li1465  Li1+  0.500  0.300  0.200  0.924
  Li2659  Li1+  0.800  0.100  0.400  0.924
  Li3025  Li1+  0.900  0.700  0.200  0.924
  Li313  Li1+  -0.000  0.500  0.500  0.927
  Li2989  Li1+  0.975  0.528  0.850  0.927
  Li2965  Li1+  0.800  0.500  0.900  0.929
  Li2599  Li1+  0.775  0.928  0.850  0.930
  Li2758  Li1+  0.800  0.200  0.300  0.932
  Li1065  Li1+  0.375  0.728  0.050  0.932
  Li3077  Li1+  0.900  0.700  0.600  0.935
  Li1356  Li1+  0.422  0.075  0.550  0.935
  Li1247  Li1+  0.375  0.928  0.450  0.935
  Li2448  Li1+  0.622  0.675  0.950  0.936
  Li1382  Li1+  0.422  0.075  0.750  0.939
  Li1876  Li1+  0.422  0.875  0.550  0.940
  Li2084  Li1+  0.622  0.275  0.150  0.940
  Li706  Li1+  0.222  0.075  0.550  0.940
  Li675  Li1+  0.375  0.128  0.050  0.940
  Li2757  Li1+  0.800  0.300  0.300  0.941
  Li888  Li1+  0.222  0.275  0.950  0.942
  Li2552  Li1+  0.622  0.875  0.750  0.943
  Li1824  Li1+  0.422  0.875  0.150  0.944
  Li2393  Li1+  0.600  0.700  0.500  0.945
  Li1301  Li1+  0.400  0.100  0.100  0.945
  Li1855  Li1+  0.500  0.900  0.200  0.946
  Li82  Li1+  0.022  0.075  0.750  0.947
  Li2802  Li1+  0.928  0.272  0.550  0.948
  Li363  Li1+  0.175  0.528  0.650  0.949
  Li703  Li1+  0.200  0.100  0.500  0.949
  Li1715  Li1+  0.575  0.728  0.050  0.949
  Li2469  Li1+  0.775  0.728  0.850  0.950
  Li342  Li1+  0.022  0.475  0.750  0.950
  Li488  Li1+  0.128  0.672  0.750  0.950
  Li1772  Li1+  0.422  0.675  0.750  0.953
  Li1304  Li1+  0.422  0.075  0.150  0.954
  Li1590  Li1+  0.422  0.475  0.350  0.955
  Li1621  Li1+  0.500  0.500  0.400  0.957
  Li1743  Li1+  0.400  0.700  0.500  0.958
  Li2126  Li1+  0.728  0.272  0.350  0.958
  Li233  Li1+  0.175  0.328  0.650  0.959
  Li2547  Li1+  0.775  0.928  0.450  0.961
  Li183  Li1+  -0.000  0.300  0.500  0.962
  Li1798  Li1+  0.422  0.675  0.950  0.962
  Li1561  Li1+  0.400  0.500  0.100  0.963
  Li2240  Li1+  0.622  0.475  0.350  0.964
  Li1403  Li1+  0.575  0.128  0.650  0.964
  Li1694  Li1+  0.422  0.675  0.150  0.964
  Li2835  Li1+  0.800  0.300  0.900  0.965
  Li1117  Li1+  0.375  0.728  0.450  0.965
  Li129  Li1+  0.175  0.128  0.850  0.965
  Li2575  Li1+  0.600  0.900  0.900  0.966
  Li2230  Li1+  0.728  0.472  0.150  0.967
  Li2055  Li1+  0.600  0.100  0.900  0.968
  Li477  Li1+  0.100  0.700  0.600  0.969
  Li2739  Li1+  0.900  0.300  0.000  0.969
  Li2178  Li1+  0.728  0.272  0.750  0.969
  Li1970  Li1+  0.728  0.072  0.150  0.969
  Li654  Li1+  0.222  0.075  0.150  0.970
  Li1441  Li1+  0.472  0.328  0.050  0.970
  Li1918  Li1+  0.528  0.872  0.750  0.970
  Li72  Li1+  0.128  0.072  0.550  0.971
  Li1961  Li1+  0.672  0.128  0.050  0.971
  Li3119  Li1+  0.975  0.728  0.850  0.971
  Li2913  Li1+  0.800  0.500  0.500  0.972
  Li904  Li1+  0.328  0.272  0.950  0.972
  Li124  Li1+  0.128  0.072  0.950  0.973
  Li1112  Li1+  0.328  0.672  0.550  0.973
  Li1899  Li1+  0.400  0.900  0.700  0.973
  Li2679  Li1+  0.800  0.100  0.700  0.974
  Li373  Li1+  0.100  0.500  0.800  0.974
  Li1944  Li1+  0.528  0.872  0.950  0.974
  Li2828  Li1+  0.928  0.272  0.750  0.974
  Li1148  Li1+  0.222  0.675  0.950  0.974
  Li2663  Li1+  0.872  0.128  0.450  0.974
  Li1219  Li1+  0.378  0.822  0.250  0.974
  Li2360  Li1+  0.728  0.672  0.150  0.975
  Li982  Li1+  0.328  0.472  0.550  0.975
  Li2308  Li1+  0.728  0.472  0.750  0.975
  Li2282  Li1+  0.728  0.472  0.550  0.975
  Li1060  Li1+  0.328  0.672  0.150  0.976
  Li566  Li1+  0.128  0.872  0.350  0.976
  Li2422  Li1+  0.622  0.675  0.750  0.976
  Li1562  Li1+  0.400  0.400  0.100  0.976
  Li2767  Li1+  0.872  0.328  0.250  0.977
  Li531  Li1+  0.072  0.928  0.050  0.977
  Li1190  Li1+  0.328  0.872  0.150  0.977
  Li1980  Li1+  0.622  0.075  0.350  0.978
  Li2880  Li1+  0.928  0.472  0.150  0.978
  Li644  Li1+  0.128  0.872  0.950  0.978
  Li2594  Li1+  0.728  0.872  0.950  0.978
  Li53  Li1+  -0.000  0.100  0.500  0.978
  Li826  Li1+  0.328  0.272  0.350  0.978
  Li2256  Li1+  0.728  0.472  0.350  0.978
  Li1597  Li1+  0.472  0.528  0.250  0.978
  Li1684  Li1+  0.528  0.472  0.950  0.978
  Li878  Li1+  0.328  0.272  0.750  0.980
  Li2559  Li1+  0.672  0.928  0.650  0.980
  Li2074  Li1+  0.728  0.072  0.950  0.980
  Li833  Li1+  0.200  0.300  0.500  0.980
  Li1252  Li1+  0.222  0.875  0.750  0.980
  Li2464  Li1+  0.728  0.672  0.950  0.981
  Li966  Li1+  0.222  0.475  0.550  0.981
  Li1207  Li1+  0.272  0.928  0.250  0.981
  Li963  Li1+  0.200  0.500  0.500  0.981
  Li202  Li1+  0.128  0.272  0.550  0.981
  Li3001  Li1+  0.872  0.728  0.050  0.981
  Li89  Li1+  0.072  0.128  0.650  0.981
  Li540  Li1+  0.128  0.872  0.150  0.981
  Li1954  Li1+  0.622  0.075  0.150  0.981
  Li339  Li1+  -0.000  0.500  0.700  0.982
  Li3157  Li1+  0.872  0.928  0.250  0.982
  Li1658  Li1+  0.528  0.472  0.750  0.982
  Li2729  Li1+  0.975  0.128  0.850  0.982
  Li2672  Li1+  0.928  0.072  0.550  0.982
  Li930  Li1+  0.328  0.472  0.150  0.983
  Li2048  Li1+  0.728  0.072  0.750  0.983
  Li493  Li1+  0.175  0.728  0.650  0.983
  Li290  Li1+  0.022  0.475  0.350  0.983
  Li1649  Li1+  0.472  0.528  0.650  0.983
  Li2207  Li1+  0.778  0.222  0.850  0.983
  Li365  Li1+  -0.000  0.500  0.900  0.983
  Li831  Li1+  0.375  0.328  0.250  0.983
  Li3209  Li1+  0.872  0.928  0.650  0.984
  Li2386  Li1+  0.728  0.672  0.350  0.984
  Li2129  Li1+  0.778  0.222  0.250  0.984
  Li3067  Li1+  0.975  0.728  0.450  0.984
  Li1323  Li1+  0.578  0.022  0.050  0.984
  Li1687  Li1+  0.578  0.422  0.850  0.984
  Li1710  Li1+  0.528  0.672  0.150  0.984
  Li209  Li1+  -0.000  0.300  0.700  0.984
  Li722  Li1+  0.328  0.072  0.550  0.984
  Li1233  Li1+  0.272  0.928  0.450  0.984
  Li51  Li1+  0.175  0.128  0.250  0.984
  Li2103  Li1+  0.778  0.222  0.050  0.984
  Li160  Li1+  0.022  0.275  0.350  0.984
  Li1637  Li1+  0.575  0.528  0.450  0.984
  Li1869  Li1+  0.578  0.822  0.250  0.985
  Li394  Li1+  0.022  0.675  0.150  0.985
  Li2391  Li1+  0.775  0.728  0.250  0.985
  Li701  Li1+  0.375  0.128  0.250  0.985
  Li1481  Li1+  0.575  0.328  0.250  0.986
  Li2497  Li1+  0.600  0.900  0.300  0.986
  Li2285  Li1+  0.778  0.422  0.450  0.986
  Li375  Li1+  0.072  0.528  0.850  0.986
  Li524  Li1+  0.022  0.875  0.150  0.986
  Li3244  Li1+  0.928  0.872  0.950  0.986
  Li1195  Li1+  0.375  0.928  0.050  0.986
  Li2637  Li1+  0.872  0.128  0.250  0.986
  Li1613  Li1+  0.400  0.500  0.500  0.986
  Li1089  Li1+  0.378  0.622  0.250  0.986
  Li2516  Li1+  0.728  0.872  0.350  0.986
  Li1330  Li1+  0.422  0.075  0.350  0.987
  Li3039  Li1+  0.978  0.622  0.250  0.987
  Li1398  Li1+  0.528  0.072  0.750  0.987
  Li1408  Li1+  0.422  0.075  0.950  0.987
  Li1996  Li1+  0.728  0.072  0.350  0.987
  Li2897  Li1+  0.872  0.528  0.250  0.987
  Li3062  Li1+  0.928  0.672  0.550  0.987
  Li2807  Li1+  0.975  0.328  0.450  0.988
  Li2845  Li1+  0.872  0.328  0.850  0.988
  Li684  Li1+  0.228  0.181  0.253  0.988
  Li1717  Li1+  0.400  0.700  0.300  0.988
  Li2611  Li1+  0.872  0.128  0.050  0.988
  Li134  Li1+  0.022  0.275  0.150  0.988
  Li774  Li1+  0.328  0.072  0.950  0.988
  Li1086  Li1+  0.328  0.672  0.350  0.989
  Li2653  Li1+  0.800  0.100  0.500  0.989
  Li3121  Li1+  0.800  0.900  0.100  0.989
  Li3131  Li1+  0.872  0.928  0.050  0.989
  Li2885  Li1+  0.975  0.528  0.050  0.989
  Li1635  Li1+  0.578  0.422  0.450  0.989
  Li2984  Li1+  0.928  0.472  0.950  0.989
  Li2403  Li1+  0.672  0.728  0.450  0.989
  Li2620  Li1+  0.928  0.072  0.150  0.989
  Li2975  Li1+  0.872  0.528  0.850  0.989
  Li1242  Li1+  0.328  0.872  0.550  0.989
  Li883  Li1+  0.375  0.328  0.650  0.989
  Li2793  Li1+  0.872  0.328  0.450  0.990
  Li2991  Li1+  0.800  0.700  0.100  0.990
  Li2100  Li1+  0.728  0.272  0.150  0.990
  Li1460  Li1+  0.422  0.275  0.350  0.990
  Li2715  Li1+  0.872  0.128  0.850  0.990
  Li2490  Li1+  0.728  0.872  0.150  0.990
  Li3166  Li1+  0.928  0.872  0.350  0.990
  Li2958  Li1+  0.928  0.472  0.750  0.990
  Li410  Li1+  0.128  0.672  0.150  0.990
  Li649  Li1+  0.175  0.928  0.850  0.990
  Li2677  Li1+  0.975  0.128  0.450  0.991
  Li1502  Li1+  0.528  0.272  0.550  0.991
  Li2315  Li1+  0.600  0.500  0.900  0.991
  Li1424  Li1+  0.528  0.072  0.950  0.991
  Li349  Li1+  0.072  0.528  0.650  0.991
  Li2455  Li1+  0.672  0.728  0.850  0.991
  Li2585  Li1+  0.672  0.928  0.850  0.991
  Li1866  Li1+  0.528  0.872  0.350  0.991
  Li30  Li1+  0.022  0.075  0.350  0.991
  Li2259  Li1+  0.778  0.422  0.250  0.992
  Li1663  Li1+  0.575  0.528  0.650  0.992
  Li1039  Li1+  0.375  0.528  0.850  0.992
  Li1297  Li1+  0.378  0.822  0.850  0.992
  Li1476  Li1+  0.528  0.272  0.350  0.992
  Li2923  Li1+  0.872  0.528  0.450  0.992
  Li1713  Li1+  0.578  0.622  0.050  0.992
  Li2533  Li1+  0.672  0.928  0.450  0.992
  Li2107  Li1+  0.600  0.300  0.300  0.992
  Li1973  Li1+  0.778  0.022  0.050  0.992
  Li647  Li1+  0.178  0.822  0.850  0.992
  Li2377  Li1+  0.672  0.728  0.250  0.992
  Li2221  Li1+  0.672  0.528  0.050  0.992
  Li332  Li1+  0.128  0.472  0.550  0.992
  Li869  Li1+  0.272  0.328  0.650  0.992
  Li661  Li1+  0.272  0.128  0.050  0.992
  Li1805  Li1+  0.472  0.728  0.850  0.992
  Li2065  Li1+  0.672  0.128  0.850  0.992
  Li2152  Li1+  0.728  0.272  0.550  0.992
  Li583  Li1+  0.072  0.928  0.450  0.992
  Li271  Li1+  0.072  0.528  0.050  0.992
  Li176  Li1+  0.128  0.272  0.350  0.992
  Li2337  Li1+  0.778  0.422  0.850  0.992
  Li2741  Li1+  0.872  0.328  0.050  0.993
  Li417  Li1+  -0.000  0.700  0.300  0.993
  Li2204  Li1+  0.728  0.272  0.950  0.993
  Li2939  Li1+  0.800  0.500  0.700  0.993
  Li254  Li1+  0.128  0.272  0.950  0.993
  Li852  Li1+  0.328  0.272  0.550  0.993
  Li1138  Li1+  0.328  0.672  0.750  0.993
  Li2819  Li1+  0.872  0.328  0.650  0.993
  Li1799  Li1+  0.422  0.778  0.950  0.993
  Li881  Li1+  0.378  0.222  0.650  0.993
  Li2795  Li1+  0.872  0.222  0.450  0.993
  Li1493  Li1+  0.472  0.328  0.450  0.993
  Li739  Li1+  0.272  0.128  0.650  0.993
  Li1545  Li1+  0.472  0.328  0.850  0.993
  Li1739  Li1+  0.578  0.622  0.250  0.993
  Li696  Li1+  0.328  0.072  0.350  0.993
  Li1271  Li1+  0.378  0.822  0.650  0.993
  Li3223  Li1+  0.975  0.928  0.650  0.993
  Li238  Li1+  0.022  0.275  0.950  0.993
  Li2233  Li1+  0.778  0.422  0.050  0.993
  Li2831  Li1+  0.978  0.222  0.650  0.994
  Li2949  Li1+  0.872  0.528  0.650  0.994
  Li2887  Li1+  0.800  0.500  0.300  0.994
  Li959  Li1+  0.378  0.422  0.250  0.994
  Li1294  Li1+  0.328  0.872  0.950  0.994
  Li1435  Li1+  0.422  0.378  0.150  0.994
  Li1115  Li1+  0.378  0.622  0.450  0.994
  Li1721  Li1+  0.422  0.778  0.350  0.994
  Li956  Li1+  0.328  0.472  0.350  0.994
  Li1519  Li1+  0.472  0.328  0.650  0.994
  Li2475  Li1+  0.622  0.978  0.150  0.994
  Li1405  Li1+  0.400  0.100  0.900  0.994
  Li633  Li1+  0.100  0.900  0.800  0.994
  Li1389  Li1+  0.472  0.128  0.650  0.994
  Li2263  Li1+  0.600  0.500  0.500  0.994
  Li2542  Li1+  0.728  0.872  0.550  0.994
  Li755  Li1+  0.200  0.100  0.900  0.994
  Li1268  Li1+  0.328  0.872  0.750  0.994
  Li1383  Li1+  0.422  0.178  0.750  0.994
  Li1892  Li1+  0.528  0.872  0.550  0.994
  Li1034  Li1+  0.328  0.472  0.950  0.995
  Li1181  Li1+  0.272  0.928  0.050  0.995
  Li1193  Li1+  0.378  0.822  0.050  0.995
  Li2731  Li1+  0.800  0.300  0.100  0.995
  Li75  Li1+  0.178  0.022  0.450  0.995
  Li2325  Li1+  0.672  0.528  0.850  0.995
  Li732  Li1+  0.222  0.075  0.750  0.995
  Li3125  Li1+  0.822  0.978  0.150  0.995
  Li127  Li1+  0.178  0.022  0.850  0.995
  Li219  Li1+  0.072  0.328  0.650  0.995
  Li2987  Li1+  0.978  0.422  0.850  0.995
  Li2787  Li1+  0.822  0.378  0.550  0.995
  Li1539  Li1+  0.422  0.378  0.950  0.995
  Li283  Li1+  0.178  0.422  0.050  0.995
  Li725  Li1+  0.378  0.022  0.450  0.995
  Li1642  Li1+  0.422  0.475  0.750  0.995
  Li57  Li1+  0.022  0.178  0.550  0.995
  Li2871  Li1+  0.872  0.528  0.050  0.995
  Li1528  Li1+  0.528  0.272  0.750  0.995
  Li2189  Li1+  0.622  0.378  0.950  0.995
  Li1947  Li1+  0.578  0.822  0.850  0.995
  Li1779  Li1+  0.472  0.728  0.650  0.995
  Li3183  Li1+  0.872  0.928  0.450  0.995
  Li2471  Li1+  0.600  0.900  0.100  0.996
  Li1643  Li1+  0.422  0.578  0.750  0.996
  Li2657  Li1+  0.822  0.178  0.550  0.996
  Li2604  Li1+  0.822  0.075  0.150  0.996
  Li855  Li1+  0.378  0.222  0.450  0.996
  Li1883  Li1+  0.472  0.928  0.450  0.996
  Li2519  Li1+  0.778  0.822  0.250  0.996
  Li1467  Li1+  0.472  0.328  0.250  0.996
  Li2891  Li1+  0.822  0.578  0.350  0.996
  Li1487  Li1+  0.422  0.378  0.550  0.996
  Li265  Li1+  0.022  0.578  0.150  0.996
  Li947  Li1+  0.272  0.528  0.250  0.996
  Li297  Li1+  0.072  0.528  0.250  0.996
  Li800  Li1+  0.328  0.272  0.150  0.996
  Li1831  Li1+  0.472  0.928  0.050  0.996
  Li3249  Li1+  0.975  0.928  0.850  0.996
  Li1632  Li1+  0.528  0.472  0.550  0.996
  Li1259  Li1+  0.272  0.928  0.650  0.996
  Li687  Li1+  0.272  0.128  0.250  0.996
  Li2545  Li1+  0.778  0.822  0.450  0.996
  Li2631  Li1+  0.822  0.178  0.350  0.996
  Li235  Li1+  -0.000  0.300  0.900  0.996
  Li291  Li1+  0.022  0.578  0.350  0.996
  Li1847  Li1+  0.400  0.900  0.300  0.996
  Li3203  Li1+  0.822  0.978  0.750  0.996
  Li3079  Li1+  0.872  0.728  0.650  0.996
  Li933  Li1+  0.378  0.422  0.050  0.997
  Li2809  Li1+  0.800  0.300  0.700  0.997
  Li2481  Li1+  0.672  0.928  0.050  0.997
  Li98  Li1+  0.128  0.072  0.750  0.997
  Li2241  Li1+  0.622  0.578  0.350  0.997
  Li1037  Li1+  0.378  0.422  0.850  0.997
  Li2022  Li1+  0.728  0.072  0.550  0.997
  Li1909  Li1+  0.472  0.928  0.650  0.997
  Li2389  Li1+  0.778  0.622  0.250  0.997
  Li2805  Li1+  0.978  0.222  0.450  0.997
  Li2493  Li1+  0.778  0.822  0.050  0.997
  Li1753  Li1+  0.472  0.728  0.450  0.997
  Li2155  Li1+  0.778  0.222  0.450  0.997
  Li2527  Li1+  0.622  0.978  0.550  0.997
  Li1736  Li1+  0.528  0.672  0.350  0.997
  Li37  Li1+  0.072  0.128  0.250  0.997
  Li2865  Li1+  0.822  0.578  0.150  0.997
  Li1201  Li1+  0.222  0.978  0.350  0.997
  Li2334  Li1+  0.728  0.472  0.950  0.997
  Li777  Li1+  0.378  0.022  0.850  0.997
  Li1935  Li1+  0.472  0.928  0.850  0.997
  Li1580  Li1+  0.528  0.472  0.150  0.997
  Li25  Li1+  0.175  0.128  0.050  0.997
  Li1044  Li1+  0.222  0.675  0.150  0.997
  Li2932  Li1+  0.928  0.472  0.550  0.997
  Li907  Li1+  0.378  0.222  0.850  0.997
  Li335  Li1+  0.178  0.422  0.450  0.997
  Li2059  Li1+  0.622  0.178  0.950  0.997
  Li1063  Li1+  0.378  0.622  0.050  0.997
  Li46  Li1+  0.128  0.072  0.350  0.997
  Li369  Li1+  0.022  0.578  0.950  0.997
  Li2627  Li1+  0.800  0.100  0.300  0.997
  Li205  Li1+  0.178  0.222  0.450  0.997
  Li941  Li1+  0.222  0.578  0.350  0.997
  Li2311  Li1+  0.778  0.422  0.650  0.997
  Li1793  Li1+  0.575  0.728  0.650  0.997
  Li1903  Li1+  0.422  0.978  0.750  0.997
  Li2299  Li1+  0.672  0.528  0.650  0.997
  Li2683  Li1+  0.822  0.178  0.750  0.997
  Li1427  Li1+  0.578  0.022  0.850  0.998
  Li2917  Li1+  0.822  0.578  0.550  0.998
  Li1227  Li1+  0.222  0.978  0.550  0.998
  Li629  Li1+  0.022  0.978  0.950  0.998
  Li2724  Li1+  0.928  0.072  0.950  0.998
  Li576  Li1+  0.022  0.875  0.550  0.998
  Li3036  Li1+  0.928  0.672  0.350  0.998
  Li3235  Li1+  0.872  0.928  0.850  0.998
  Li621  Li1+  0.178  0.822  0.650  0.998
  Li2995  Li1+  0.822  0.778  0.150  0.998
  Li181  Li1+  0.175  0.328  0.250  0.998
  Li479  Li1+  0.072  0.728  0.650  0.998
  Li2727  Li1+  0.978  0.022  0.850  0.998
  Li1788  Li1+  0.528  0.672  0.750  0.998
  Li1337  Li1+  0.472  0.128  0.250  0.998
  Li2077  Li1+  0.778  0.022  0.850  0.998
  Li2839  Li1+  0.822  0.378  0.950  0.998
  Li446  Li1+  0.022  0.675  0.550  0.998
  Li2675  Li1+  0.978  0.022  0.450  0.998
  Li1221  Li1+  0.375  0.928  0.250  0.998
  Li514  Li1+  0.128  0.672  0.950  0.998
  Li1505  Li1+  0.578  0.222  0.450  0.998
  Li2090  Li1+  0.672  0.222  0.144  0.998
  Li2651  Li1+  0.975  0.128  0.250  0.998
  Li2051  Li1+  0.778  0.022  0.650  0.998
  Li1141  Li1+  0.378  0.622  0.650  0.998
  Li1305  Li1+  0.422  0.178  0.150  0.998
  Li2579  Li1+  0.622  0.978  0.950  0.998
  Li2649  Li1+  0.978  0.022  0.250  0.998
  Li2319  Li1+  0.622  0.578  0.950  0.998
  Li1155  Li1+  0.272  0.728  0.850  0.998
  Li985  Li1+  0.378  0.422  0.450  0.998
  Li1077  Li1+  0.272  0.728  0.250  0.998
  Li285  Li1+  0.175  0.528  0.050  0.998
  Li3151  Li1+  0.822  0.978  0.350  0.998
  Li592  Li1+  0.128  0.872  0.550  0.998
  Li3027  Li1+  0.872  0.728  0.250  0.998
  Li2195  Li1+  0.672  0.328  0.850  0.998
  Li1145  Li1+  0.200  0.700  0.900  0.999
  Li2883  Li1+  0.978  0.422  0.050  0.999
  Li415  Li1+  0.175  0.728  0.050  0.999
  Li699  Li1+  0.378  0.022  0.250  0.999
  Li837  Li1+  0.222  0.378  0.550  0.999
  Li1071  Li1+  0.222  0.778  0.350  0.999
  Li835  Li1+  0.222  0.272  0.444  0.999
  Li115  Li1+  0.072  0.128  0.850  0.999
  Li2577  Li1+  0.622  0.872  0.844  0.999
  Li498  Li1+  0.022  0.675  0.950  0.999
  Li2351  Li1+  0.672  0.728  0.050  0.999
  Li1149  Li1+  0.222  0.778  0.950  0.999
  Li2367  Li1+  0.600  0.700  0.300  0.999
  Li245  Li1+  0.072  0.328  0.850  0.999
  Li179  Li1+  0.178  0.222  0.250  0.999
  Li2608  Li1+  0.828  0.181  0.053  0.999
  Li2755  Li1+  0.975  0.328  0.050  0.999
  Li439  Li1+  0.178  0.622  0.250  0.999
  Li573  Li1+  -0.000  0.900  0.500  0.999
  Li1175  Li1+  0.222  0.978  0.150  0.999
  Li2025  Li1+  0.778  0.022  0.450  0.999
  Li1606  Li1+  0.528  0.472  0.350  0.999
  Li1351  Li1+  0.575  0.128  0.250  0.999
  Li2571  Li1+  0.778  0.822  0.650  0.999
  Li2449  Li1+  0.622  0.778  0.950  0.999
  Li2467  Li1+  0.778  0.622  0.850  0.999
  Li239  Li1+  0.022  0.378  0.950  0.999
  Li1216  Li1+  0.328  0.872  0.350  0.999
  Li707  Li1+  0.222  0.178  0.550  0.999
  Li2088  Li1+  0.628  0.381  0.053  0.999
  Li1453  Li1+  0.578  0.222  0.050  0.999
  Li1375  Li1+  0.578  0.022  0.450  0.999
  Li3053  Li1+  0.872  0.728  0.450  0.999
  Li2371  Li1+  0.622  0.778  0.350  0.999
  Li2215  Li1+  0.622  0.578  0.150  0.999
  Li1895  Li1+  0.578  0.822  0.450  0.999
  Li2012  Li1+  0.672  0.022  0.544  0.999
  Li577  Li1+  0.022  0.978  0.550  0.999
  Li2568  Li1+  0.728  0.872  0.750  0.999
  Li602  Li1+  0.022  0.875  0.750  0.999
  Li1951  Li1+  0.600  0.100  0.100  0.999
  Li2705  Li1+  0.800  0.100  0.900  0.999
  Li467  Li1+  0.175  0.728  0.450  0.999
  Li2689  Li1+  0.872  0.128  0.650  0.999
  Li389  Li1+  0.175  0.528  0.850  0.999
  Li2324  Li1+  0.672  0.422  0.944  0.999
  Li103  Li1+  0.175  0.128  0.650  0.999
  Li2181  Li1+  0.778  0.222  0.650  0.999
  Li1871  Li1+  0.575  0.928  0.250  0.999
  Li2589  Li1+  0.728  0.978  0.950  0.999
  Li1664  Li1+  0.572  0.425  0.753  0.999
  Li3229  Li1+  0.822  0.978  0.950  0.999
  Li2854  Li1+  0.928  0.272  0.950  0.999
  Li3072  Li1+  0.822  0.675  0.750  0.999
  Li1623  Li1+  0.472  0.528  0.450  0.999
  Li2396  Li1+  0.622  0.675  0.550  0.999
  Li650  Li1+  0.172  0.825  0.953  0.999
  Li361  Li1+  0.178  0.422  0.650  0.999
  Li83  Li1+  0.022  0.178  0.750  0.999
  Li11  Li1+  0.072  0.128  0.050  0.999
  Li109  Li1+  0.022  0.178  0.950  0.999
  Li993  Li1+  0.222  0.578  0.750  0.999
  Li2117  Li1+  0.672  0.328  0.250  0.999
  Li1825  Li1+  0.422  0.978  0.150  0.999
  Li78  Li1+  0.172  0.025  0.553  0.999
  Li1727  Li1+  0.472  0.728  0.250  0.999
  Li618  Li1+  0.128  0.872  0.750  0.999
  Li751  Li1+  0.378  0.022  0.650  0.999
  Li3199  Li1+  0.800  0.900  0.700  0.999
  Li1617  Li1+  0.422  0.578  0.550  0.999
  Li1531  Li1+  0.578  0.222  0.650  0.999
  Li1690  Li1+  0.572  0.425  0.953  0.999
  Li1557  Li1+  0.578  0.222  0.850  0.999
  Li2109  Li1+  0.622  0.272  0.244  0.999
  Li2288  Li1+  0.772  0.425  0.553  0.999
  Li1609  Li1+  0.578  0.422  0.250  0.999
  Li1401  Li1+  0.578  0.022  0.650  0.999
  Li2605  Li1+  0.822  0.178  0.150  1.000
  Li1326  Li1+  0.572  0.025  0.153  1.000
  Li623  Li1+  0.175  0.928  0.650  1.000
  Li2698  Li1+  0.928  0.072  0.750  1.000
  Li1872  Li1+  0.572  0.825  0.353  1.000
  Li1461  Li1+  0.422  0.378  0.350  1.000
  Li453  Li1+  0.072  0.728  0.450  1.000
  Li2961  Li1+  0.978  0.422  0.650  1.000
  Li2091  Li1+  0.672  0.328  0.050  1.000
  Li2210  Li1+  0.772  0.225  0.953  1.000
  Li1565  Li1+  0.422  0.578  0.150  1.000
  Li1765  Li1+  0.578  0.622  0.450  1.000
  Li1984  Li1+  0.628  0.181  0.253  1.000
  Li2137  Li1+  0.622  0.378  0.550  1.000
  Li256  Li1+  0.178  0.328  0.956  1.000
  Li680  Li1+  0.222  0.075  0.350  1.000
  Li2143  Li1+  0.672  0.328  0.450  1.000
  Li462  Li1+  0.128  0.672  0.550  1.000
  Li286  Li1+  0.172  0.425  0.153  1.000
  Li2247  Li1+  0.672  0.528  0.250  1.000
  Li1123  Li1+  0.222  0.778  0.750  1.000
  Li2863  Li1+  0.822  0.472  0.044  1.000
  Li2397  Li1+  0.622  0.778  0.550  1.000
  Li3041  Li1+  0.975  0.728  0.250  1.000
  Li409  Li1+  0.128  0.778  0.056  1.000
  Li2024  Li1+  0.778  0.128  0.556  1.000
  Li2600  Li1+  0.772  0.825  0.953  1.000
  Li2429  Li1+  0.672  0.728  0.650  1.000
  Li784  Li1+  0.222  0.275  0.150  1.000
  Li785  Li1+  0.222  0.378  0.150  1.000
  Li713  Li1+  0.272  0.128  0.450  1.000
  Li2837  Li1+  0.822  0.272  0.844  1.000
  Li2922  Li1+  0.872  0.422  0.544  1.000
  Li88  Li1+  0.072  0.022  0.744  1.000
  Li903  Li1+  0.328  0.378  0.856  1.000
  Li1965  Li1+  0.728  0.178  0.150  1.000
  Li598  Li1+  0.172  0.825  0.553  1.000
  Li2821  Li1+  0.872  0.222  0.650  1.000
  Li490  Li1+  0.178  0.728  0.756  1.000
  Li2646  Li1+  0.928  0.072  0.350  1.000
  Li228  Li1+  0.128  0.272  0.750  1.000
  Li525  Li1+  0.022  0.978  0.150  1.000
  Li2530  Li1+  0.628  0.981  0.453  1.000
  Li1999  Li1+  0.778  0.022  0.250  1.000
  Li8  Li1+  0.028  0.181  0.053  1.000
  Li473  Li1+  0.022  0.778  0.750  1.000
  Li1372  Li1+  0.528  0.072  0.550  1.000
  Li670  Li1+  0.328  0.072  0.150  1.000
  Li2111  Li1+  0.622  0.378  0.350  1.000
  Li2544  Li1+  0.778  0.928  0.556  1.000
  Li1880  Li1+  0.428  0.981  0.453  1.000
  Li1253  Li1+  0.222  0.978  0.750  1.000
  Li1813  Li1+  0.528  0.778  0.856  1.000
  Li646  Li1+  0.178  0.928  0.956  1.000
  Li1455  Li1+  0.575  0.328  0.050  1.000
  Li123  Li1+  0.128  0.178  0.856  1.000
  Li1669  Li1+  0.422  0.578  0.950  1.000
  Li3140  Li1+  0.928  0.872  0.150  1.000
  Li1781  Li1+  0.472  0.622  0.650  1.000
  Li1170  Li1+  0.372  0.625  0.953  1.000
  Li1568  Li1+  0.428  0.581  0.053  1.000
  Li3093  Li1+  0.975  0.728  0.650  1.000
  Li689  Li1+  0.272  0.022  0.250  1.000
  Li413  Li1+  0.178  0.622  0.050  1.000
  Li2485  Li1+  0.728  0.978  0.150  1.000
  Li280  Li1+  0.128  0.472  0.150  1.000
  Li2244  Li1+  0.628  0.581  0.253  1.000
  Li3047  Li1+  0.822  0.778  0.550  1.000
  Li2239  Li1+  0.622  0.472  0.244  1.000
  Li55  Li1+  0.022  0.072  0.444  1.000
  Li2340  Li1+  0.772  0.425  0.953  1.000
  Li1747  Li1+  0.422  0.778  0.550  1.000
  Li2678  Li1+  0.972  0.025  0.553  1.000
  Li2050  Li1+  0.778  0.128  0.756  1.000
  Li2099  Li1+  0.728  0.378  0.056  1.000
  Li435  Li1+  0.128  0.778  0.256  1.000
  Li665  Li1+  0.328  0.178  0.150  1.000
  Li821  Li1+  0.328  0.378  0.350  1.000
  Li3117  Li1+  0.978  0.622  0.850  1.000
  Li384  Li1+  0.128  0.472  0.950  1.000
  Li1279  Li1+  0.222  0.978  0.950  1.000
  Li736  Li1+  0.228  0.181  0.653  1.000
  Li1126  Li1+  0.228  0.781  0.653  1.000
  Li1840  Li1+  0.528  0.872  0.150  1.000
  Li757  Li1+  0.222  0.072  0.844  1.000
  Li1814  Li1+  0.528  0.672  0.950  1.000
  Li603  Li1+  0.022  0.978  0.750  1.000
  Li1554  Li1+  0.528  0.272  0.950  1.000
  Li101  Li1+  0.178  0.022  0.650  1.000
  Li1917  Li1+  0.528  0.978  0.656  1.000
  Li1289  Li1+  0.328  0.978  0.950  1.000
  Li3218  Li1+  0.928  0.872  0.750  1.000
  Li472  Li1+  0.022  0.675  0.750  1.000
  Li2366  Li1+  0.772  0.625  0.153  1.000
  Li52  Li1+  0.172  0.025  0.353  1.000
  Li2028  Li1+  0.772  0.025  0.553  1.000
  Li1854  Li1+  0.428  0.981  0.253  1.000
  Li2941  Li1+  0.822  0.472  0.644  1.000
  Li2496  Li1+  0.772  0.825  0.153  1.000
  Li1129  Li1+  0.272  0.728  0.650  1.000
  Li1360  Li1+  0.428  0.181  0.453  1.000
  Li204  Li1+  0.178  0.328  0.556  1.000
  Li1310  Li1+  0.472  0.022  0.144  1.000
  Li242  Li1+  0.028  0.381  0.853  1.000
  Li3154  Li1+  0.828  0.981  0.253  1.000
  Li2906  Li1+  0.928  0.472  0.350  1.000
  Li2504  Li1+  0.628  0.981  0.253  1.000
  Li447  Li1+  0.022  0.778  0.550  1.000
  Li150  Li1+  0.128  0.272  0.150  1.000
  Li759  Li1+  0.222  0.178  0.950  1.000
  Li26  Li1+  0.172  0.025  0.153  1.000
  Li2441  Li1+  0.778  0.622  0.650  1.000
  Li1764  Li1+  0.578  0.728  0.556  1.000
  Li951  Li1+  0.328  0.578  0.350  1.000
  Li167  Li1+  0.072  0.328  0.250  1.000
  Li1024  Li1+  0.272  0.422  0.944  1.000
  Li2764  Li1+  0.828  0.381  0.253  1.000
  Li2886  Li1+  0.972  0.425  0.153  1.000
  Li218  Li1+  0.072  0.222  0.744  1.000
  Li164  Li1+  0.028  0.381  0.253  1.000
  Li2463  Li1+  0.728  0.778  0.856  1.000
  Li1586  Li1+  0.572  0.425  0.153  1.000
  Li2750  Li1+  0.928  0.272  0.150  1.000
  Li1244  Li1+  0.378  0.928  0.556  1.000
  Li1308  Li1+  0.428  0.181  0.053  1.000
  Li1282  Li1+  0.228  0.981  0.853  1.000
  Li2265  Li1+  0.622  0.472  0.444  1.000
  Li1675  Li1+  0.472  0.528  0.850  1.000
  Li2894  Li1+  0.828  0.581  0.253  1.000
  Li3099  Li1+  0.822  0.778  0.950  1.000
  Li301  Li1+  0.128  0.578  0.350  1.000
  Li3195  Li1+  0.978  0.822  0.450  1.000
  Li1560  Li1+  0.572  0.225  0.953  1.000
  Li967  Li1+  0.222  0.578  0.550  1.000
  Li513  Li1+  0.128  0.778  0.856  1.000
  Li2726  Li1+  0.978  0.128  0.956  1.000
  Li357  Li1+  0.128  0.578  0.656  1.000
  Li1345  Li1+  0.528  0.178  0.256  1.000
  Li60  Li1+  0.028  0.181  0.453  1.000
  Li221  Li1+  0.072  0.222  0.650  1.000
  Li609  Li1+  0.072  0.928  0.650  1.000
  Li1070  Li1+  0.222  0.675  0.350  1.000
  Li1934  Li1+  0.472  0.822  0.944  1.000
  Li575  Li1+  0.022  0.872  0.444  1.000
  Li2730  Li1+  0.972  0.025  0.953  1.000
  Li887  Li1+  0.222  0.272  0.844  1.000
  Li673  Li1+  0.378  0.022  0.050  1.000
  Li1438  Li1+  0.428  0.381  0.053  1.000
  Li15  Li1+  0.128  0.178  0.150  1.000
  Li3139  Li1+  0.928  0.978  0.056  1.000
  Li2701  Li1+  0.978  0.022  0.650  1.000
  Li257  Li1+  0.178  0.222  0.850  1.000
  Li2811  Li1+  0.822  0.272  0.644  1.000
  Li2400  Li1+  0.628  0.781  0.453  1.000
  Li2213  Li1+  0.622  0.472  0.044  1.000
  Li2667  Li1+  0.928  0.178  0.550  1.000
  Li2076  Li1+  0.778  0.128  0.956  1.000
  Li582  Li1+  0.072  0.822  0.544  1.000
  Li1921  Li1+  0.578  0.822  0.650  1.000
  Li1683  Li1+  0.528  0.578  0.856  1.000
  Li1735  Li1+  0.528  0.778  0.256  1.000
  Li3120  Li1+  0.972  0.625  0.953  1.000
  Li1456  Li1+  0.572  0.225  0.153  1.000
  Li814  Li1+  0.228  0.381  0.253  1.000
  Li107  Li1+  0.022  0.072  0.844  1.000
  Li2163  Li1+  0.622  0.378  0.750  1.000
  Li710  Li1+  0.228  0.181  0.453  1.000
  Li3143  Li1+  0.978  0.822  0.050  1.000
  Li1757  Li1+  0.528  0.778  0.550  1.000
  Li516  Li1+  0.178  0.728  0.956  1.000
  Li1790  Li1+  0.578  0.728  0.756  1.000
  Li2291  Li1+  0.622  0.472  0.644  1.000
  Li2438  Li1+  0.728  0.672  0.750  1.000
  Li1575  Li1+  0.528  0.578  0.150  1.000
  Li1362  Li1+  0.472  0.022  0.544  1.000
  Li1230  Li1+  0.228  0.981  0.453  1.000
  Li1771  Li1+  0.422  0.672  0.644  1.000
  Li223  Li1+  0.128  0.378  0.750  1.000
  Li803  Li1+  0.378  0.222  0.050  1.000
  Li1981  Li1+  0.622  0.178  0.350  1.000
  Li1868  Li1+  0.578  0.928  0.356  1.000
  Li1976  Li1+  0.772  0.025  0.153  1.000
  Li1066  Li1+  0.372  0.625  0.153  1.000
  Li2808  Li1+  0.972  0.225  0.553  1.000
  Li1363  Li1+  0.472  0.128  0.450  1.000
  Li1851  Li1+  0.422  0.978  0.350  1.000
  Li1043  Li1+  0.222  0.672  0.044  1.000
  Li2350  Li1+  0.672  0.622  0.144  1.000
  Li1615  Li1+  0.422  0.472  0.444  1.000
  Li2374  Li1+  0.628  0.781  0.253  1.000
  Li1634  Li1+  0.578  0.528  0.556  1.000
  Li528  Li1+  0.028  0.981  0.053  1.000
  Li3213  Li1+  0.928  0.978  0.750  1.000
  Li1768  Li1+  0.572  0.625  0.553  1.000
  Li358  Li1+  0.128  0.472  0.750  1.000
  Li182  Li1+  0.172  0.225  0.353  1.000
  Li595  Li1+  0.178  0.822  0.450  1.000
  Li2194  Li1+  0.672  0.222  0.944  1.000
  Li1898  Li1+  0.572  0.825  0.553  1.000
  Li691  Li1+  0.328  0.178  0.350  1.000
  Li3065  Li1+  0.978  0.622  0.450  1.000
  Li2085  Li1+  0.622  0.378  0.150  1.000
  Li1163  Li1+  0.328  0.778  0.856  1.000
  Li3172  Li1+  0.972  0.825  0.353  1.000
  Li790  Li1+  0.272  0.222  0.144  1.000
  Li3000  Li1+  0.872  0.622  0.144  1.000
  Li2712  Li1+  0.828  0.181  0.853  1.000
  Li2541  Li1+  0.728  0.978  0.456  1.000
  Li2709  Li1+  0.822  0.178  0.950  1.000
  Li627  Li1+  0.022  0.872  0.844  1.000
  Li1147  Li1+  0.222  0.672  0.844  1.000
  Li542  Li1+  0.178  0.928  0.156  1.000
  Li1573  Li1+  0.472  0.422  0.050  1.000
  Li981  Li1+  0.328  0.578  0.456  1.000
  Li1329  Li1+  0.422  0.072  0.244  1.000
  Li884  Li1+  0.372  0.225  0.753  1.000
  Li3102  Li1+  0.828  0.781  0.853  1.000
  Li2281  Li1+  0.728  0.578  0.456  1.000
  Li712  Li1+  0.272  0.022  0.544  1.000
  Li1464  Li1+  0.428  0.381  0.253  1.000
  Li721  Li1+  0.328  0.178  0.456  1.000
  Li1542  Li1+  0.428  0.381  0.853  1.000
  Li1620  Li1+  0.428  0.581  0.453  1.000
  Li973  Li1+  0.272  0.528  0.450  1.000
  Li2778  Li1+  0.978  0.328  0.356  1.000
  Li655  Li1+  0.222  0.178  0.150  1.000
  Li3021  Li1+  0.822  0.778  0.350  1.000
  Li1527  Li1+  0.528  0.378  0.656  1.000
  Li702  Li1+  0.372  0.025  0.353  1.000
  Li698  Li1+  0.378  0.128  0.356  1.000
  Li259  Li1+  0.175  0.328  0.850  1.000
  Li1105  Li1+  0.272  0.622  0.450  1.000
  Li992  Li1+  0.222  0.475  0.750  1.000
  Li3064  Li1+  0.978  0.728  0.556  1.000
  Li2781  Li1+  0.975  0.328  0.250  1.000
  Li1285  Li1+  0.272  0.928  0.850  1.000
  Li2478  Li1+  0.628  0.981  0.053  1.000
  Li2036  Li1+  0.628  0.181  0.653  1.000
  Li494  Li1+  0.172  0.625  0.753  1.000
  Li1701  Li1+  0.472  0.728  0.050  1.000
  Li3187  Li1+  0.928  0.978  0.550  1.000
  Li62  Li1+  0.072  0.022  0.544  1.000
  Li45  Li1+  0.128  0.178  0.256  1.000
  Li2813  Li1+  0.822  0.378  0.750  1.000
  Li1357  Li1+  0.422  0.178  0.550  1.000
  Li783  Li1+  0.222  0.272  0.044  1.000
  Li2322  Li1+  0.628  0.581  0.853  1.000
  Li1594  Li1+  0.428  0.581  0.253  1.000
  Li387  Li1+  0.178  0.422  0.850  1.000
  Li1029  Li1+  0.328  0.578  0.950  1.000
  Li1549  Li1+  0.528  0.378  0.950  1.000
  Li2875  Li1+  0.928  0.578  0.150  1.000
  Li317  Li1+  0.022  0.578  0.550  1.000
  Li1958  Li1+  0.628  0.181  0.053  1.000
  Li2303  Li1+  0.728  0.578  0.750  1.000
  Li1807  Li1+  0.472  0.622  0.850  1.000
  Li889  Li1+  0.222  0.378  0.950  1.000
  Li3211  Li1+  0.872  0.822  0.650  1.000
  Li1378  Li1+  0.572  0.025  0.553  1.000
  Li20  Li1+  0.128  0.072  0.150  1.000
  Li3177  Li1+  0.822  0.978  0.550  1.000
  Li1178  Li1+  0.228  0.981  0.053  1.000
  Li3247  Li1+  0.978  0.822  0.850  1.000
  Li840  Li1+  0.228  0.381  0.453  1.000
  Li854  Li1+  0.378  0.328  0.556  1.000
  Li2272  Li1+  0.672  0.422  0.544  1.000
  Li944  Li1+  0.228  0.581  0.253  1.000
  Li374  Li1+  0.072  0.422  0.944  1.000
  Li213  Li1+  0.022  0.378  0.750  1.000
  Li2804  Li1+  0.978  0.328  0.556  1.000
  Li2771  Li1+  0.928  0.378  0.350  1.000
  Li873  Li1+  0.328  0.378  0.750  1.000
  Li2714  Li1+  0.872  0.022  0.944  1.000
  Li471  Li1+  0.022  0.672  0.644  1.000
  Li29  Li1+  0.022  0.072  0.244  1.000
  Li1449  Li1+  0.528  0.378  0.056  1.000
  Li572  Li1+  0.172  0.825  0.353  1.000
  Li1513  Li1+  0.422  0.378  0.750  1.000
  Li3091  Li1+  0.978  0.622  0.650  1.000
  Li275  Li1+  0.128  0.578  0.150  1.000
  Li1204  Li1+  0.228  0.981  0.253  1.000
  Li1367  Li1+  0.528  0.178  0.550  1.000
  Li825  Li1+  0.328  0.378  0.256  1.000
  Li253  Li1+  0.128  0.378  0.856  1.000
  Li1348  Li1+  0.578  0.128  0.356  1.000
  Li5  Li1+  0.022  0.178  0.150  1.000
  Li1059  Li1+  0.328  0.778  0.056  1.000
  Li100  Li1+  0.178  0.128  0.756  1.000
  Li2753  Li1+  0.978  0.222  0.050  1.000
  Li2964  Li1+  0.972  0.425  0.753  1.000
  Li601  Li1+  0.022  0.872  0.644  1.000
  Li2937  Li1+  0.975  0.528  0.450  1.000
  Li63  Li1+  0.072  0.128  0.450  1.000
  Li523  Li1+  0.022  0.872  0.044  1.000
  Li34  Li1+  0.028  0.181  0.253  1.000
  Li2444  Li1+  0.772  0.625  0.753  1.000
  Li1776  Li1+  0.428  0.781  0.653  1.000
  Li1274  Li1+  0.372  0.825  0.753  1.000
  Li1173  Li1+  0.222  0.872  0.044  1.000
  Li3050  Li1+  0.828  0.781  0.453  1.000
  Li2106  Li1+  0.772  0.225  0.153  1.000
  Li22  Li1+  0.178  0.128  0.156  1.000
  Li1241  Li1+  0.328  0.978  0.456  1.000
  Li461  Li1+  0.128  0.778  0.456  1.000
  Li2080  Li1+  0.772  0.025  0.953  1.000
  Li591  Li1+  0.128  0.978  0.456  1.000
  Li999  Li1+  0.272  0.528  0.650  1.000
  Li2901  Li1+  0.928  0.578  0.350  1.000
  Li2759  Li1+  0.822  0.272  0.244  1.000
  Li1920  Li1+  0.578  0.928  0.756  1.000
  Li2395  Li1+  0.622  0.672  0.444  1.000
  Li71  Li1+  0.128  0.178  0.456  1.000
  Li2474  Li1+  0.622  0.875  0.150  1.000
  Li436  Li1+  0.128  0.672  0.350  1.000
  Li499  Li1+  0.022  0.778  0.950  1.000
  Li1794  Li1+  0.572  0.625  0.753  1.000
  Li2402  Li1+  0.672  0.622  0.544  1.000
  Li1419  Li1+  0.528  0.178  0.950  1.000
  Li1943  Li1+  0.528  0.978  0.856  1.000
  Li3024  Li1+  0.828  0.781  0.253  1.000
  Li104  Li1+  0.172  0.025  0.753  1.000
  Li1605  Li1+  0.528  0.578  0.256  1.000
  Li3175  Li1+  0.822  0.872  0.444  1.000
  Li3  Li1+  0.022  0.072  0.044  1.000
  Li10  Li1+  0.072  0.022  0.144  1.000
  Li13  Li1+  0.072  0.022  0.050  1.000
  Li19  Li1+  0.128  0.178  0.056  1.000
  Li23  Li1+  0.178  0.022  0.050  1.000
  Li31  Li1+  0.022  0.178  0.350  1.000
  Li36  Li1+  0.072  0.022  0.344  1.000
  Li39  Li1+  0.072  0.022  0.250  1.000
  Li41  Li1+  0.128  0.178  0.350  1.000
  Li48  Li1+  0.178  0.128  0.356  1.000
  Li49  Li1+  0.178  0.022  0.250  1.000
  Li65  Li1+  0.072  0.022  0.450  1.000
  Li67  Li1+  0.128  0.178  0.550  1.000
  Li74  Li1+  0.178  0.128  0.556  1.000
  Li79  Li1+  -0.000  0.100  0.700  1.000
  Li81  Li1+  0.022  0.072  0.644  1.000
  Li86  Li1+  0.028  0.181  0.653  1.000
  Li91  Li1+  0.072  0.022  0.650  1.000
  Li93  Li1+  0.128  0.178  0.750  1.000
  Li97  Li1+  0.128  0.178  0.656  1.000
  Li112  Li1+  0.028  0.181  0.853  1.000
  Li114  Li1+  0.072  0.022  0.944  1.000
  Li117  Li1+  0.072  0.022  0.850  1.000
  Li119  Li1+  0.128  0.178  0.950  1.000
  Li126  Li1+  0.178  0.128  0.956  1.000
  Li130  Li1+  0.172  0.025  0.953  1.000
  Li133  Li1+  0.022  0.272  0.044  1.000
  Li135  Li1+  0.022  0.378  0.150  1.000
  Li138  Li1+  0.028  0.381  0.053  1.000
  Li140  Li1+  0.072  0.222  0.144  1.000
  Li141  Li1+  0.072  0.328  0.050  1.000
  Li143  Li1+  0.072  0.222  0.050  1.000
  Li145  Li1+  0.128  0.378  0.150  1.000
  Li149  Li1+  0.128  0.378  0.056  1.000
  Li152  Li1+  0.178  0.328  0.156  1.000
  Li153  Li1+  0.178  0.222  0.050  1.000
  Li156  Li1+  0.172  0.225  0.153  1.000
  Li159  Li1+  0.022  0.272  0.244  1.000
  Li161  Li1+  0.022  0.378  0.350  1.000
  Li166  Li1+  0.072  0.222  0.344  1.000
  Li169  Li1+  0.072  0.222  0.250  1.000
  Li171  Li1+  0.128  0.378  0.350  1.000
  Li175  Li1+  0.128  0.378  0.256  1.000
  Li178  Li1+  0.178  0.328  0.356  1.000
  Li185  Li1+  0.022  0.272  0.444  1.000
  Li187  Li1+  0.022  0.378  0.550  1.000
  Li190  Li1+  0.028  0.381  0.453  1.000
  Li192  Li1+  0.072  0.222  0.544  1.000
  Li193  Li1+  0.072  0.328  0.450  1.000
  Li195  Li1+  0.072  0.222  0.450  1.000
  Li197  Li1+  0.128  0.378  0.550  1.000
  Li201  Li1+  0.128  0.378  0.456  1.000
  Li208  Li1+  0.172  0.225  0.553  1.000
  Li211  Li1+  0.022  0.272  0.644  1.000
  Li216  Li1+  0.028  0.381  0.653  1.000
  Li227  Li1+  0.128  0.378  0.656  1.000
  Li230  Li1+  0.178  0.328  0.756  1.000
  Li231  Li1+  0.178  0.222  0.650  1.000
  Li234  Li1+  0.172  0.225  0.753  1.000
  Li237  Li1+  0.022  0.272  0.844  1.000
  Li244  Li1+  0.072  0.222  0.944  1.000
  Li247  Li1+  0.072  0.222  0.850  1.000
  Li249  Li1+  0.128  0.378  0.950  1.000
  Li260  Li1+  0.172  0.225  0.953  1.000
  Li263  Li1+  0.022  0.472  0.044  1.000
  Li268  Li1+  0.028  0.581  0.053  1.000
  Li270  Li1+  0.072  0.422  0.144  1.000
  Li273  Li1+  0.072  0.422  0.050  1.000
  Li279  Li1+  0.128  0.578  0.056  1.000
  Li282  Li1+  0.178  0.528  0.156  1.000
  Li287  Li1+  -0.000  0.500  0.300  1.000
  Li289  Li1+  0.022  0.472  0.244  1.000
  Li294  Li1+  0.028  0.581  0.253  1.000
  Li296  Li1+  0.072  0.422  0.344  1.000
  Li299  Li1+  0.072  0.422  0.250  1.000
  Li305  Li1+  0.128  0.578  0.256  1.000
  Li306  Li1+  0.128  0.472  0.350  1.000
  Li308  Li1+  0.178  0.528  0.356  1.000
  Li309  Li1+  0.178  0.422  0.250  1.000
  Li312  Li1+  0.172  0.425  0.353  1.000
  Li315  Li1+  0.022  0.472  0.444  1.000
  Li320  Li1+  0.028  0.581  0.453  1.000
  Li322  Li1+  0.072  0.422  0.544  1.000
  Li323  Li1+  0.072  0.528  0.450  1.000
  Li325  Li1+  0.072  0.422  0.450  1.000
  Li327  Li1+  0.128  0.578  0.550  1.000
  Li331  Li1+  0.128  0.578  0.456  1.000
  Li334  Li1+  0.178  0.528  0.556  1.000
  Li337  Li1+  0.175  0.528  0.450  1.000
  Li338  Li1+  0.172  0.425  0.553  1.000
  Li341  Li1+  0.022  0.472  0.644  1.000
  Li343  Li1+  0.022  0.578  0.750  1.000
  Li346  Li1+  0.028  0.581  0.653  1.000
  Li348  Li1+  0.072  0.422  0.744  1.000
  Li351  Li1+  0.072  0.422  0.650  1.000
  Li353  Li1+  0.128  0.578  0.750  1.000
  Li360  Li1+  0.178  0.528  0.756  1.000
  Li364  Li1+  0.172  0.425  0.753  1.000
  Li367  Li1+  0.022  0.472  0.844  1.000
  Li372  Li1+  0.028  0.581  0.853  1.000
  Li377  Li1+  0.072  0.422  0.850  1.000
  Li379  Li1+  0.128  0.578  0.950  1.000
  Li383  Li1+  0.128  0.578  0.856  1.000
  Li386  Li1+  0.178  0.528  0.956  1.000
  Li390  Li1+  0.172  0.425  0.953  1.000
  Li393  Li1+  0.022  0.672  0.044  1.000
  Li395  Li1+  0.022  0.778  0.150  1.000
  Li398  Li1+  0.028  0.781  0.053  1.000
  Li399  Li1+  0.100  0.700  0.000  1.000
  Li400  Li1+  0.072  0.622  0.144  1.000
  Li401  Li1+  0.072  0.728  0.050  1.000
  Li403  Li1+  0.072  0.622  0.050  1.000
  Li405  Li1+  0.128  0.778  0.150  1.000
  Li412  Li1+  0.178  0.728  0.156  1.000
  Li416  Li1+  0.172  0.625  0.153  1.000
  Li419  Li1+  0.022  0.672  0.244  1.000
  Li421  Li1+  0.022  0.778  0.350  1.000
  Li424  Li1+  0.028  0.781  0.253  1.000
  Li426  Li1+  0.072  0.622  0.344  1.000
  Li427  Li1+  0.072  0.728  0.250  1.000
  Li429  Li1+  0.072  0.622  0.250  1.000
  Li431  Li1+  0.128  0.778  0.350  1.000
  Li438  Li1+  0.178  0.728  0.356  1.000
  Li442  Li1+  0.172  0.625  0.353  1.000
  Li445  Li1+  0.022  0.672  0.444  1.000
  Li450  Li1+  0.028  0.781  0.453  1.000
  Li452  Li1+  0.072  0.622  0.544  1.000
  Li455  Li1+  0.072  0.622  0.450  1.000
  Li457  Li1+  0.128  0.778  0.550  1.000
  Li464  Li1+  0.178  0.728  0.556  1.000
  Li465  Li1+  0.178  0.622  0.450  1.000
  Li468  Li1+  0.172  0.625  0.553  1.000
  Li476  Li1+  0.028  0.781  0.653  1.000
  Li478  Li1+  0.072  0.622  0.744  1.000
  Li481  Li1+  0.072  0.622  0.650  1.000
  Li483  Li1+  0.128  0.778  0.750  1.000
  Li487  Li1+  0.128  0.778  0.656  1.000
  Li491  Li1+  0.178  0.622  0.650  1.000
  Li497  Li1+  0.022  0.672  0.844  1.000
  Li502  Li1+  0.028  0.781  0.853  1.000
  Li504  Li1+  0.072  0.622  0.944  1.000
  Li505  Li1+  0.072  0.728  0.850  1.000
  Li507  Li1+  0.072  0.622  0.850  1.000
  Li509  Li1+  0.128  0.778  0.950  1.000
  Li517  Li1+  0.178  0.622  0.850  1.000
  Li520  Li1+  0.172  0.625  0.953  1.000
  Li530  Li1+  0.072  0.822  0.144  1.000
  Li533  Li1+  0.072  0.822  0.050  1.000
  Li535  Li1+  0.128  0.978  0.150  1.000
  Li539  Li1+  0.128  0.978  0.056  1.000
  Li543  Li1+  0.178  0.822  0.050  1.000
  Li546  Li1+  0.172  0.825  0.153  1.000
  Li549  Li1+  0.022  0.872  0.244  1.000
  Li550  Li1+  0.022  0.875  0.350  1.000
  Li551  Li1+  0.022  0.978  0.350  1.000
  Li554  Li1+  0.028  0.981  0.253  1.000
  Li556  Li1+  0.072  0.822  0.344  1.000
  Li557  Li1+  0.072  0.928  0.250  1.000
  Li559  Li1+  0.072  0.822  0.250  1.000
  Li561  Li1+  0.128  0.978  0.350  1.000
  Li565  Li1+  0.128  0.978  0.256  1.000
  Li568  Li1+  0.178  0.928  0.356  1.000
  Li569  Li1+  0.178  0.822  0.250  1.000
  Li580  Li1+  0.028  0.981  0.453  1.000
  Li585  Li1+  0.072  0.822  0.450  1.000
  Li587  Li1+  0.128  0.978  0.550  1.000
  Li594  Li1+  0.178  0.928  0.556  1.000
  Li599  Li1+  -0.000  0.900  0.700  1.000
  Li606  Li1+  0.028  0.981  0.653  1.000
  Li607  Li1+  0.100  0.900  0.600  1.000
  Li608  Li1+  0.072  0.822  0.744  1.000
  Li611  Li1+  0.072  0.822  0.650  1.000
  Li613  Li1+  0.128  0.978  0.750  1.000
  Li617  Li1+  0.128  0.978  0.656  1.000
  Li620  Li1+  0.178  0.928  0.756  1.000
  Li624  Li1+  0.172  0.825  0.753  1.000
  Li625  Li1+  -0.000  0.900  0.900  1.000
  Li632  Li1+  0.028  0.981  0.853  1.000
  Li634  Li1+  0.072  0.822  0.944  1.000
  Li635  Li1+  0.072  0.928  0.850  1.000
  Li637  Li1+  0.072  0.822  0.850  1.000
  Li639  Li1+  0.128  0.978  0.950  1.000
  Li643  Li1+  0.128  0.978  0.856  1.000
  Li653  Li1+  0.222  0.072  0.044  1.000
  Li658  Li1+  0.228  0.181  0.053  1.000
  Li660  Li1+  0.272  0.022  0.144  1.000
  Li663  Li1+  0.272  0.022  0.050  1.000
  Li669  Li1+  0.328  0.178  0.056  1.000
  Li672  Li1+  0.378  0.128  0.156  1.000
  Li676  Li1+  0.372  0.025  0.153  1.000
  Li679  Li1+  0.222  0.072  0.244  1.000
  Li681  Li1+  0.222  0.178  0.350  1.000
  Li686  Li1+  0.272  0.022  0.344  1.000
  Li695  Li1+  0.328  0.178  0.256  1.000
  Li705  Li1+  0.222  0.072  0.444  1.000
  Li715  Li1+  0.272  0.022  0.450  1.000
  Li717  Li1+  0.328  0.178  0.550  1.000
  Li724  Li1+  0.378  0.128  0.556  1.000
  Li728  Li1+  0.372  0.025  0.553  1.000
  Li731  Li1+  0.222  0.072  0.644  1.000
  Li733  Li1+  0.222  0.178  0.750  1.000
  Li738  Li1+  0.272  0.022  0.744  1.000
  Li741  Li1+  0.272  0.022  0.650  1.000
  Li743  Li1+  0.328  0.178  0.750  1.000
  Li747  Li1+  0.328  0.178  0.656  1.000
  Li748  Li1+  0.328  0.072  0.750  1.000
  Li750  Li1+  0.378  0.128  0.756  1.000
  Li754  Li1+  0.372  0.025  0.753  1.000
  Li762  Li1+  0.228  0.181  0.853  1.000
  Li764  Li1+  0.272  0.022  0.944  1.000
  Li765  Li1+  0.272  0.128  0.850  1.000
  Li767  Li1+  0.272  0.022  0.850  1.000
  Li769  Li1+  0.328  0.178  0.950  1.000
  Li773  Li1+  0.328  0.178  0.856  1.000
  Li776  Li1+  0.378  0.128  0.956  1.000
  Li780  Li1+  0.372  0.025  0.953  1.000
  Li781  Li1+  0.200  0.300  0.100  1.000
  Li788  Li1+  0.228  0.381  0.053  1.000
  Li791  Li1+  0.272  0.328  0.050  1.000
  Li793  Li1+  0.272  0.222  0.050  1.000
  Li795  Li1+  0.328  0.378  0.150  1.000
  Li799  Li1+  0.328  0.378  0.056  1.000
  Li802  Li1+  0.378  0.328  0.156  1.000
  Li806  Li1+  0.372  0.225  0.153  1.000
  Li809  Li1+  0.222  0.272  0.244  1.000
  Li811  Li1+  0.222  0.378  0.350  1.000
  Li816  Li1+  0.272  0.222  0.344  1.000
  Li817  Li1+  0.272  0.328  0.250  1.000
  Li819  Li1+  0.272  0.222  0.250  1.000
  Li828  Li1+  0.378  0.328  0.356  1.000
  Li829  Li1+  0.378  0.222  0.250  1.000
  Li832  Li1+  0.372  0.225  0.353  1.000
  Li842  Li1+  0.272  0.222  0.544  1.000
  Li843  Li1+  0.272  0.328  0.450  1.000
  Li845  Li1+  0.272  0.222  0.450  1.000
  Li847  Li1+  0.328  0.378  0.550  1.000
  Li851  Li1+  0.328  0.378  0.456  1.000
  Li858  Li1+  0.372  0.225  0.553  1.000
  Li861  Li1+  0.222  0.272  0.644  1.000
  Li862  Li1+  0.222  0.275  0.750  1.000
  Li863  Li1+  0.222  0.378  0.750  1.000
  Li866  Li1+  0.228  0.381  0.653  1.000
  Li868  Li1+  0.272  0.222  0.744  1.000
  Li871  Li1+  0.272  0.222  0.650  1.000
  Li877  Li1+  0.328  0.378  0.656  1.000
  Li880  Li1+  0.378  0.328  0.756  1.000
  Li892  Li1+  0.228  0.381  0.853  1.000
  Li894  Li1+  0.272  0.222  0.944  1.000
  Li895  Li1+  0.272  0.328  0.850  1.000
  Li897  Li1+  0.272  0.222  0.850  1.000
  Li899  Li1+  0.328  0.378  0.950  1.000
  Li906  Li1+  0.378  0.328  0.956  1.000
  Li910  Li1+  0.372  0.225  0.953  1.000
  Li911  Li1+  0.200  0.500  0.100  1.000
  Li913  Li1+  0.222  0.472  0.044  1.000
  Li915  Li1+  0.222  0.578  0.150  1.000
  Li918  Li1+  0.228  0.581  0.053  1.000
  Li920  Li1+  0.272  0.422  0.144  1.000
  Li921  Li1+  0.272  0.528  0.050  1.000
  Li923  Li1+  0.272  0.422  0.050  1.000
  Li925  Li1+  0.328  0.578  0.150  1.000
  Li929  Li1+  0.328  0.578  0.056  1.000
  Li932  Li1+  0.378  0.528  0.156  1.000
  Li936  Li1+  0.372  0.425  0.153  1.000
  Li937  Li1+  0.200  0.500  0.300  1.000
  Li939  Li1+  0.222  0.472  0.244  1.000
  Li940  Li1+  0.222  0.475  0.350  1.000
  Li946  Li1+  0.272  0.422  0.344  1.000
  Li949  Li1+  0.272  0.422  0.250  1.000
  Li955  Li1+  0.328  0.578  0.256  1.000
  Li958  Li1+  0.378  0.528  0.356  1.000
  Li962  Li1+  0.372  0.425  0.353  1.000
  Li965  Li1+  0.222  0.472  0.444  1.000
  Li970  Li1+  0.228  0.581  0.453  1.000
  Li972  Li1+  0.272  0.422  0.544  1.000
  Li975  Li1+  0.272  0.422  0.450  1.000
  Li977  Li1+  0.328  0.578  0.550  1.000
  Li984  Li1+  0.378  0.528  0.556  1.000
  Li988  Li1+  0.372  0.425  0.553  1.000
  Li989  Li1+  0.200  0.500  0.700  1.000
  Li991  Li1+  0.222  0.472  0.644  1.000
  Li996  Li1+  0.228  0.581  0.653  1.000
  Li998  Li1+  0.272  0.422  0.744  1.000
  Li1001  Li1+  0.272  0.422  0.650  1.000
  Li1003  Li1+  0.328  0.578  0.750  1.000
  Li1007  Li1+  0.328  0.578  0.656  1.000
  Li1008  Li1+  0.328  0.472  0.750  1.000
  Li1010  Li1+  0.378  0.528  0.756  1.000
  Li1011  Li1+  0.378  0.422  0.650  1.000
  Li1014  Li1+  0.372  0.425  0.753  1.000
  Li1015  Li1+  0.200  0.500  0.900  1.000
  Li1017  Li1+  0.222  0.472  0.844  1.000
  Li1018  Li1+  0.222  0.475  0.950  1.000
  Li1019  Li1+  0.222  0.578  0.950  1.000
  Li1022  Li1+  0.228  0.581  0.853  1.000
  Li1025  Li1+  0.272  0.528  0.850  1.000
  Li1027  Li1+  0.272  0.422  0.850  1.000
  Li1033  Li1+  0.328  0.578  0.856  1.000
  Li1036  Li1+  0.378  0.528  0.956  1.000
  Li1040  Li1+  0.372  0.425  0.953  1.000
  Li1045  Li1+  0.222  0.778  0.150  1.000
  Li1048  Li1+  0.228  0.781  0.053  1.000
  Li1050  Li1+  0.272  0.622  0.144  1.000
  Li1051  Li1+  0.272  0.728  0.050  1.000
  Li1053  Li1+  0.272  0.622  0.050  1.000
  Li1055  Li1+  0.328  0.778  0.150  1.000
  Li1062  Li1+  0.378  0.728  0.156  1.000
  Li1069  Li1+  0.222  0.672  0.244  1.000
  Li1074  Li1+  0.228  0.781  0.253  1.000
  Li1076  Li1+  0.272  0.622  0.344  1.000
  Li1079  Li1+  0.272  0.622  0.250  1.000
  Li1081  Li1+  0.328  0.778  0.350  1.000
  Li1085  Li1+  0.328  0.778  0.256  1.000
  Li1088  Li1+  0.378  0.728  0.356  1.000
  Li1092  Li1+  0.372  0.625  0.353  1.000
  Li1095  Li1+  0.222  0.672  0.444  1.000
  Li1096  Li1+  0.222  0.675  0.550  1.000
  Li1097  Li1+  0.222  0.778  0.550  1.000
  Li1100  Li1+  0.228  0.781  0.453  1.000
  Li1102  Li1+  0.272  0.622  0.544  1.000
  Li1103  Li1+  0.272  0.728  0.450  1.000
  Li1107  Li1+  0.328  0.778  0.550  1.000
  Li1111  Li1+  0.328  0.778  0.456  1.000
  Li1114  Li1+  0.378  0.728  0.556  1.000
  Li1118  Li1+  0.372  0.625  0.553  1.000
  Li1121  Li1+  0.222  0.672  0.644  1.000
  Li1128  Li1+  0.272  0.622  0.744  1.000
  Li1131  Li1+  0.272  0.622  0.650  1.000
  Li1133  Li1+  0.328  0.778  0.750  1.000
  Li1137  Li1+  0.328  0.778  0.656  1.000
  Li1140  Li1+  0.378  0.728  0.756  1.000
  Li1144  Li1+  0.372  0.625  0.753  1.000
  Li1152  Li1+  0.228  0.781  0.853  1.000
  Li1154  Li1+  0.272  0.622  0.944  1.000
  Li1157  Li1+  0.272  0.622  0.850  1.000
  Li1159  Li1+  0.328  0.778  0.950  1.000
  Li1164  Li1+  0.328  0.672  0.950  1.000
  Li1166  Li1+  0.378  0.728  0.956  1.000
  Li1167  Li1+  0.378  0.622  0.850  1.000
  Li1180  Li1+  0.272  0.822  0.144  1.000
  Li1183  Li1+  0.272  0.822  0.050  1.000
  Li1185  Li1+  0.328  0.978  0.150  1.000
  Li1189  Li1+  0.328  0.978  0.056  1.000
  Li1192  Li1+  0.378  0.928  0.156  1.000
  Li1196  Li1+  0.372  0.825  0.153  1.000
  Li1199  Li1+  0.222  0.872  0.244  1.000
  Li1206  Li1+  0.272  0.822  0.344  1.000
  Li1209  Li1+  0.272  0.822  0.250  1.000
  Li1211  Li1+  0.328  0.978  0.350  1.000
  Li1215  Li1+  0.328  0.978  0.256  1.000
  Li1218  Li1+  0.378  0.928  0.356  1.000
  Li1222  Li1+  0.372  0.825  0.353  1.000
  Li1223  Li1+  0.200  0.900  0.500  1.000
  Li1225  Li1+  0.222  0.872  0.444  1.000
  Li1232  Li1+  0.272  0.822  0.544  1.000
  Li1235  Li1+  0.272  0.822  0.450  1.000
  Li1237  Li1+  0.328  0.978  0.550  1.000
  Li1245  Li1+  0.378  0.822  0.450  1.000
  Li1248  Li1+  0.372  0.825  0.553  1.000
  Li1249  Li1+  0.200  0.900  0.700  1.000
  Li1251  Li1+  0.222  0.872  0.644  1.000
  Li1256  Li1+  0.228  0.981  0.653  1.000
  Li1258  Li1+  0.272  0.822  0.744  1.000
  Li1261  Li1+  0.272  0.822  0.650  1.000
  Li1263  Li1+  0.328  0.978  0.750  1.000
  Li1267  Li1+  0.328  0.978  0.656  1.000
  Li1270  Li1+  0.378  0.928  0.756  1.000
  Li1277  Li1+  0.222  0.872  0.844  1.000
  Li1284  Li1+  0.272  0.822  0.944  1.000
  Li1287  Li1+  0.272  0.822  0.850  1.000
  Li1293  Li1+  0.328  0.978  0.856  1.000
  Li1296  Li1+  0.378  0.928  0.956  1.000
  Li1300  Li1+  0.372  0.825  0.953  1.000
  Li1303  Li1+  0.422  0.072  0.044  1.000
  Li1311  Li1+  0.472  0.128  0.050  1.000
  Li1313  Li1+  0.472  0.022  0.050  1.000
  Li1315  Li1+  0.528  0.178  0.150  1.000
  Li1319  Li1+  0.528  0.178  0.056  1.000
  Li1320  Li1+  0.528  0.072  0.150  1.000
  Li1322  Li1+  0.578  0.128  0.156  1.000
  Li1331  Li1+  0.422  0.178  0.350  1.000
  Li1334  Li1+  0.428  0.181  0.253  1.000
  Li1336  Li1+  0.472  0.022  0.344  1.000
  Li1339  Li1+  0.472  0.022  0.250  1.000
  Li1341  Li1+  0.528  0.178  0.350  1.000
  Li1346  Li1+  0.528  0.072  0.350  1.000
  Li1349  Li1+  0.578  0.022  0.250  1.000
  Li1352  Li1+  0.572  0.025  0.353  1.000
  Li1355  Li1+  0.422  0.072  0.444  1.000
  Li1361  Li1+  0.500  0.100  0.400  1.000
  Li1365  Li1+  0.472  0.022  0.450  1.000
  Li1371  Li1+  0.528  0.178  0.456  1.000
  Li1374  Li1+  0.578  0.128  0.556  1.000
  Li1377  Li1+  0.575  0.128  0.450  1.000
  Li1381  Li1+  0.422  0.072  0.644  1.000
  Li1386  Li1+  0.428  0.181  0.653  1.000
  Li1388  Li1+  0.472  0.022  0.744  1.000
  Li1391  Li1+  0.472  0.022  0.650  1.000
  Li1393  Li1+  0.528  0.178  0.750  1.000
  Li1397  Li1+  0.528  0.178  0.656  1.000
  Li1400  Li1+  0.578  0.128  0.756  1.000
  Li1404  Li1+  0.572  0.025  0.753  1.000
  Li1407  Li1+  0.422  0.072  0.844  1.000
  Li1409  Li1+  0.422  0.178  0.950  1.000
  Li1412  Li1+  0.428  0.181  0.853  1.000
  Li1414  Li1+  0.472  0.022  0.944  1.000
  Li1415  Li1+  0.472  0.128  0.850  1.000
  Li1417  Li1+  0.472  0.022  0.850  1.000
  Li1423  Li1+  0.528  0.178  0.856  1.000
  Li1426  Li1+  0.578  0.128  0.956  1.000
  Li1430  Li1+  0.572  0.025  0.953  1.000
  Li1431  Li1+  0.400  0.300  0.100  1.000
  Li1433  Li1+  0.422  0.272  0.044  1.000
  Li1440  Li1+  0.472  0.222  0.144  1.000
  Li1443  Li1+  0.472  0.222  0.050  1.000
  Li1445  Li1+  0.528  0.378  0.150  1.000
  Li1450  Li1+  0.528  0.272  0.150  1.000
  Li1452  Li1+  0.578  0.328  0.156  1.000
  Li1459  Li1+  0.422  0.272  0.244  1.000
  Li1466  Li1+  0.472  0.222  0.344  1.000
  Li1469  Li1+  0.472  0.222  0.250  1.000
  Li1471  Li1+  0.528  0.378  0.350  1.000
  Li1475  Li1+  0.528  0.378  0.256  1.000
  Li1478  Li1+  0.578  0.328  0.356  1.000
  Li1479  Li1+  0.578  0.222  0.250  1.000
  Li1482  Li1+  0.572  0.225  0.353  1.000
  Li1485  Li1+  0.422  0.272  0.444  1.000
  Li1490  Li1+  0.428  0.381  0.453  1.000
  Li1492  Li1+  0.472  0.222  0.544  1.000
  Li1495  Li1+  0.472  0.222  0.450  1.000
  Li1497  Li1+  0.528  0.378  0.550  1.000
  Li1501  Li1+  0.528  0.378  0.456  1.000
  Li1504  Li1+  0.578  0.328  0.556  1.000
  Li1508  Li1+  0.572  0.225  0.553  1.000
  Li1511  Li1+  0.422  0.272  0.644  1.000
  Li1516  Li1+  0.428  0.381  0.653  1.000
  Li1518  Li1+  0.472  0.222  0.744  1.000
  Li1521  Li1+  0.472  0.222  0.650  1.000
  Li1523  Li1+  0.528  0.378  0.750  1.000
  Li1530  Li1+  0.578  0.328  0.756  1.000
  Li1534  Li1+  0.572  0.225  0.753  1.000
  Li1535  Li1+  0.400  0.300  0.900  1.000
  Li1537  Li1+  0.422  0.272  0.844  1.000
  Li1544  Li1+  0.472  0.222  0.944  1.000
  Li1547  Li1+  0.472  0.222  0.850  1.000
  Li1553  Li1+  0.528  0.378  0.856  1.000
  Li1556  Li1+  0.578  0.328  0.956  1.000
  Li1563  Li1+  0.422  0.472  0.044  1.000
  Li1570  Li1+  0.472  0.422  0.144  1.000
  Li1571  Li1+  0.472  0.528  0.050  1.000
  Li1579  Li1+  0.528  0.578  0.056  1.000
  Li1582  Li1+  0.578  0.528  0.156  1.000
  Li1583  Li1+  0.578  0.422  0.050  1.000
  Li1589  Li1+  0.422  0.472  0.244  1.000
  Li1591  Li1+  0.422  0.578  0.350  1.000
  Li1596  Li1+  0.472  0.422  0.344  1.000
  Li1599  Li1+  0.472  0.422  0.250  1.000
  Li1601  Li1+  0.528  0.578  0.350  1.000
  Li1608  Li1+  0.578  0.528  0.356  1.000
  Li1612  Li1+  0.572  0.425  0.353  1.000
  Li1622  Li1+  0.472  0.422  0.544  1.000
  Li1625  Li1+  0.472  0.422  0.450  1.000
  Li1627  Li1+  0.528  0.578  0.550  1.000
  Li1631  Li1+  0.528  0.578  0.456  1.000
  Li1638  Li1+  0.572  0.425  0.553  1.000
  Li1639  Li1+  0.400  0.500  0.700  1.000
  Li1641  Li1+  0.422  0.472  0.644  1.000
  Li1646  Li1+  0.428  0.581  0.653  1.000
  Li1648  Li1+  0.472  0.422  0.744  1.000
  Li1651  Li1+  0.472  0.422  0.650  1.000
  Li1653  Li1+  0.528  0.578  0.750  1.000
  Li1657  Li1+  0.528  0.578  0.656  1.000
  Li1660  Li1+  0.578  0.528  0.756  1.000
  Li1661  Li1+  0.578  0.422  0.650  1.000
  Li1667  Li1+  0.422  0.472  0.844  1.000
  Li1672  Li1+  0.428  0.581  0.853  1.000
  Li1674  Li1+  0.472  0.422  0.944  1.000
  Li1677  Li1+  0.472  0.422  0.850  1.000
  Li1679  Li1+  0.528  0.578  0.950  1.000
  Li1686  Li1+  0.578  0.528  0.956  1.000
  Li1693  Li1+  0.422  0.672  0.044  1.000
  Li1695  Li1+  0.422  0.778  0.150  1.000
  Li1698  Li1+  0.428  0.781  0.053  1.000
  Li1700  Li1+  0.472  0.622  0.144  1.000
  Li1703  Li1+  0.472  0.622  0.050  1.000
  Li1705  Li1+  0.528  0.778  0.150  1.000
  Li1709  Li1+  0.528  0.778  0.056  1.000
  Li1712  Li1+  0.578  0.728  0.156  1.000
  Li1716  Li1+  0.572  0.625  0.153  1.000
  Li1719  Li1+  0.422  0.672  0.244  1.000
  Li1724  Li1+  0.428  0.781  0.253  1.000
  Li1726  Li1+  0.472  0.622  0.344  1.000
  Li1729  Li1+  0.472  0.622  0.250  1.000
  Li1731  Li1+  0.528  0.778  0.350  1.000
  Li1738  Li1+  0.578  0.728  0.356  1.000
  Li1742  Li1+  0.572  0.625  0.353  1.000
  Li1745  Li1+  0.422  0.672  0.444  1.000
  Li1750  Li1+  0.428  0.781  0.453  1.000
  Li1752  Li1+  0.472  0.622  0.544  1.000
  Li1755  Li1+  0.472  0.622  0.450  1.000
  Li1761  Li1+  0.528  0.778  0.456  1.000
  Li1762  Li1+  0.528  0.672  0.550  1.000
  Li1773  Li1+  0.422  0.778  0.750  1.000
  Li1778  Li1+  0.472  0.622  0.744  1.000
  Li1783  Li1+  0.528  0.778  0.750  1.000
  Li1787  Li1+  0.528  0.778  0.656  1.000
  Li1791  Li1+  0.578  0.622  0.650  1.000
  Li1797  Li1+  0.422  0.672  0.844  1.000
  Li1802  Li1+  0.428  0.781  0.853  1.000
  Li1804  Li1+  0.472  0.622  0.944  1.000
  Li1809  Li1+  0.528  0.778  0.950  1.000
  Li1816  Li1+  0.578  0.728  0.956  1.000
  Li1817  Li1+  0.578  0.622  0.850  1.000
  Li1820  Li1+  0.572  0.625  0.953  1.000
  Li1823  Li1+  0.422  0.872  0.044  1.000
  Li1828  Li1+  0.428  0.981  0.053  1.000
  Li1830  Li1+  0.472  0.822  0.144  1.000
  Li1833  Li1+  0.472  0.822  0.050  1.000
  Li1835  Li1+  0.528  0.978  0.150  1.000
  Li1839  Li1+  0.528  0.978  0.056  1.000
  Li1842  Li1+  0.578  0.928  0.156  1.000
  Li1843  Li1+  0.578  0.822  0.050  1.000
  Li1846  Li1+  0.572  0.825  0.153  1.000
  Li1849  Li1+  0.422  0.872  0.244  1.000
  Li1856  Li1+  0.472  0.822  0.344  1.000
  Li1857  Li1+  0.472  0.928  0.250  1.000
  Li1859  Li1+  0.472  0.822  0.250  1.000
  Li1861  Li1+  0.528  0.978  0.350  1.000
  Li1865  Li1+  0.528  0.978  0.256  1.000
  Li1875  Li1+  0.422  0.872  0.444  1.000
  Li1877  Li1+  0.422  0.978  0.550  1.000
  Li1882  Li1+  0.472  0.822  0.544  1.000
  Li1885  Li1+  0.472  0.822  0.450  1.000
  Li1887  Li1+  0.528  0.978  0.550  1.000
  Li1891  Li1+  0.528  0.978  0.456  1.000
  Li1894  Li1+  0.578  0.928  0.556  1.000
  Li1901  Li1+  0.422  0.872  0.644  1.000
  Li1906  Li1+  0.428  0.981  0.653  1.000
  Li1908  Li1+  0.472  0.822  0.744  1.000
  Li1911  Li1+  0.472  0.822  0.650  1.000
  Li1913  Li1+  0.528  0.978  0.750  1.000
  Li1924  Li1+  0.572  0.825  0.753  1.000
  Li1925  Li1+  0.400  0.900  0.900  1.000
  Li1927  Li1+  0.422  0.872  0.844  1.000
  Li1929  Li1+  0.422  0.978  0.950  1.000
  Li1932  Li1+  0.428  0.981  0.853  1.000
  Li1937  Li1+  0.472  0.822  0.850  1.000
  Li1939  Li1+  0.528  0.978  0.950  1.000
  Li1946  Li1+  0.578  0.928  0.956  1.000
  Li1950  Li1+  0.572  0.825  0.953  1.000
  Li1953  Li1+  0.622  0.072  0.044  1.000
  Li1955  Li1+  0.622  0.178  0.150  1.000
  Li1960  Li1+  0.672  0.022  0.144  1.000
  Li1963  Li1+  0.672  0.022  0.050  1.000
  Li1969  Li1+  0.728  0.178  0.056  1.000
  Li1972  Li1+  0.778  0.128  0.156  1.000
  Li1979  Li1+  0.622  0.072  0.244  1.000
  Li1986  Li1+  0.672  0.022  0.344  1.000
  Li1987  Li1+  0.672  0.128  0.250  1.000
  Li1989  Li1+  0.672  0.022  0.250  1.000
  Li1991  Li1+  0.728  0.178  0.350  1.000
  Li1995  Li1+  0.728  0.178  0.256  1.000
  Li1998  Li1+  0.778  0.128  0.356  1.000
  Li2002  Li1+  0.772  0.025  0.353  1.000
  Li2005  Li1+  0.622  0.072  0.444  1.000
  Li2006  Li1+  0.622  0.075  0.550  1.000
  Li2007  Li1+  0.622  0.178  0.550  1.000
  Li2010  Li1+  0.628  0.181  0.453  1.000
  Li2013  Li1+  0.672  0.128  0.450  1.000
  Li2015  Li1+  0.672  0.022  0.450  1.000
  Li2017  Li1+  0.728  0.178  0.550  1.000
  Li2021  Li1+  0.728  0.178  0.456  1.000
  Li2031  Li1+  0.622  0.072  0.644  1.000
  Li2033  Li1+  0.622  0.178  0.750  1.000
  Li2038  Li1+  0.672  0.022  0.744  1.000
  Li2039  Li1+  0.672  0.128  0.650  1.000
  Li2041  Li1+  0.672  0.022  0.650  1.000
  Li2043  Li1+  0.728  0.178  0.750  1.000
  Li2047  Li1+  0.728  0.178  0.656  1.000
  Li2054  Li1+  0.772  0.025  0.753  1.000
  Li2057  Li1+  0.622  0.072  0.844  1.000
  Li2062  Li1+  0.628  0.181  0.853  1.000
  Li2064  Li1+  0.672  0.022  0.944  1.000
  Li2067  Li1+  0.672  0.022  0.850  1.000
  Li2069  Li1+  0.728  0.178  0.950  1.000
  Li2073  Li1+  0.728  0.178  0.856  1.000
  Li2083  Li1+  0.622  0.272  0.044  1.000
  Li2093  Li1+  0.672  0.222  0.050  1.000
  Li2095  Li1+  0.728  0.378  0.150  1.000
  Li2102  Li1+  0.778  0.328  0.156  1.000
  Li2114  Li1+  0.628  0.381  0.253  1.000
  Li2116  Li1+  0.672  0.222  0.344  1.000
  Li2119  Li1+  0.672  0.222  0.250  1.000
  Li2121  Li1+  0.728  0.378  0.350  1.000
  Li2125  Li1+  0.728  0.378  0.256  1.000
  Li2128  Li1+  0.778  0.328  0.356  1.000
  Li2132  Li1+  0.772  0.225  0.353  1.000
  Li2133  Li1+  0.600  0.300  0.500  1.000
  Li2135  Li1+  0.622  0.272  0.444  1.000
  Li2140  Li1+  0.628  0.381  0.453  1.000
  Li2142  Li1+  0.672  0.222  0.544  1.000
  Li2145  Li1+  0.672  0.222  0.450  1.000
  Li2147  Li1+  0.728  0.378  0.550  1.000
  Li2151  Li1+  0.728  0.378  0.456  1.000
  Li2154  Li1+  0.778  0.328  0.556  1.000
  Li2158  Li1+  0.772  0.225  0.553  1.000
  Li2159  Li1+  0.600  0.300  0.700  1.000
  Li2161  Li1+  0.622  0.272  0.644  1.000
  Li2166  Li1+  0.628  0.381  0.653  1.000
  Li2168  Li1+  0.672  0.222  0.744  1.000
  Li2169  Li1+  0.672  0.328  0.650  1.000
  Li2171  Li1+  0.672  0.222  0.650  1.000
  Li2173  Li1+  0.728  0.378  0.750  1.000
  Li2177  Li1+  0.728  0.378  0.656  1.000
  Li2180  Li1+  0.778  0.328  0.756  1.000
  Li2184  Li1+  0.772  0.225  0.753  1.000
  Li2187  Li1+  0.622  0.272  0.844  1.000
  Li2192  Li1+  0.628  0.381  0.853  1.000
  Li2197  Li1+  0.672  0.222  0.850  1.000
  Li2199  Li1+  0.728  0.378  0.950  1.000
  Li2203  Li1+  0.728  0.378  0.856  1.000
  Li2206  Li1+  0.778  0.328  0.956  1.000
  Li2218  Li1+  0.628  0.581  0.053  1.000
  Li2220  Li1+  0.672  0.422  0.144  1.000
  Li2223  Li1+  0.672  0.422  0.050  1.000
  Li2225  Li1+  0.728  0.578  0.150  1.000
  Li2229  Li1+  0.728  0.578  0.056  1.000
  Li2232  Li1+  0.778  0.528  0.156  1.000
  Li2236  Li1+  0.772  0.425  0.153  1.000
  Li2246  Li1+  0.672  0.422  0.344  1.000
  Li2249  Li1+  0.672  0.422  0.250  1.000
  Li2251  Li1+  0.728  0.578  0.350  1.000
  Li2255  Li1+  0.728  0.578  0.256  1.000
  Li2258  Li1+  0.778  0.528  0.356  1.000
  Li2262  Li1+  0.772  0.425  0.353  1.000
  Li2267  Li1+  0.622  0.578  0.550  1.000
  Li2270  Li1+  0.628  0.581  0.453  1.000
  Li2273  Li1+  0.672  0.528  0.450  1.000
  Li2275  Li1+  0.672  0.422  0.450  1.000
  Li2277  Li1+  0.728  0.578  0.550  1.000
  Li2284  Li1+  0.778  0.528  0.556  1.000
  Li2293  Li1+  0.622  0.578  0.750  1.000
  Li2296  Li1+  0.628  0.581  0.653  1.000
  Li2298  Li1+  0.672  0.422  0.744  1.000
  Li2301  Li1+  0.672  0.422  0.650  1.000
  Li2307  Li1+  0.728  0.578  0.656  1.000
  Li2310  Li1+  0.778  0.528  0.756  1.000
  Li2314  Li1+  0.772  0.425  0.753  1.000
  Li2317  Li1+  0.622  0.472  0.844  1.000
  Li2327  Li1+  0.672  0.422  0.850  1.000
  Li2329  Li1+  0.728  0.578  0.950  1.000
  Li2333  Li1+  0.728  0.578  0.856  1.000
  Li2336  Li1+  0.778  0.528  0.956  1.000
  Li2341  Li1+  0.600  0.700  0.100  1.000
  Li2343  Li1+  0.622  0.672  0.044  1.000
  Li2345  Li1+  0.622  0.778  0.150  1.000
  Li2348  Li1+  0.628  0.781  0.053  1.000
  Li2353  Li1+  0.672  0.622  0.050  1.000
  Li2355  Li1+  0.728  0.778  0.150  1.000
  Li2359  Li1+  0.728  0.778  0.056  1.000
  Li2362  Li1+  0.778  0.728  0.156  1.000
  Li2363  Li1+  0.778  0.622  0.050  1.000
  Li2369  Li1+  0.622  0.672  0.244  1.000
  Li2376  Li1+  0.672  0.622  0.344  1.000
  Li2379  Li1+  0.672  0.622  0.250  1.000
  Li2381  Li1+  0.728  0.778  0.350  1.000
  Li2385  Li1+  0.728  0.778  0.256  1.000
  Li2388  Li1+  0.778  0.728  0.356  1.000
  Li2392  Li1+  0.772  0.625  0.353  1.000
  Li2405  Li1+  0.672  0.622  0.450  1.000
  Li2407  Li1+  0.728  0.778  0.550  1.000
  Li2411  Li1+  0.728  0.778  0.456  1.000
  Li2412  Li1+  0.728  0.672  0.550  1.000
  Li2414  Li1+  0.778  0.728  0.556  1.000
  Li2415  Li1+  0.778  0.622  0.450  1.000
  Li2418  Li1+  0.772  0.625  0.553  1.000
  Li2421  Li1+  0.622  0.672  0.644  1.000
  Li2423  Li1+  0.622  0.778  0.750  1.000
  Li2426  Li1+  0.628  0.781  0.653  1.000
  Li2428  Li1+  0.672  0.622  0.744  1.000
  Li2431  Li1+  0.672  0.622  0.650  1.000
  Li2433  Li1+  0.728  0.778  0.750  1.000
  Li2437  Li1+  0.728  0.778  0.656  1.000
  Li2440  Li1+  0.778  0.728  0.756  1.000
  Li2447  Li1+  0.622  0.672  0.844  1.000
  Li2452  Li1+  0.628  0.781  0.853  1.000
  Li2454  Li1+  0.672  0.622  0.944  1.000
  Li2457  Li1+  0.672  0.622  0.850  1.000
  Li2459  Li1+  0.728  0.778  0.950  1.000
  Li2466  Li1+  0.778  0.728  0.956  1.000
  Li2470  Li1+  0.772  0.625  0.953  1.000
  Li2473  Li1+  0.622  0.872  0.044  1.000
  Li2480  Li1+  0.672  0.822  0.144  1.000
  Li2483  Li1+  0.672  0.822  0.050  1.000
  Li2489  Li1+  0.728  0.978  0.056  1.000
  Li2492  Li1+  0.778  0.928  0.156  1.000
  Li2499  Li1+  0.622  0.872  0.244  1.000
  Li2501  Li1+  0.622  0.978  0.350  1.000
  Li2506  Li1+  0.672  0.822  0.344  1.000
  Li2507  Li1+  0.672  0.928  0.250  1.000
  Li2509  Li1+  0.672  0.822  0.250  1.000
  Li2511  Li1+  0.728  0.978  0.350  1.000
  Li2515  Li1+  0.728  0.978  0.256  1.000
  Li2518  Li1+  0.778  0.928  0.356  1.000
  Li2522  Li1+  0.772  0.825  0.353  1.000
  Li2523  Li1+  0.600  0.900  0.500  1.000
  Li2525  Li1+  0.622  0.872  0.444  1.000
  Li2532  Li1+  0.672  0.822  0.544  1.000
  Li2535  Li1+  0.672  0.822  0.450  1.000
  Li2537  Li1+  0.728  0.978  0.550  1.000
  Li2548  Li1+  0.772  0.825  0.553  1.000
  Li2551  Li1+  0.622  0.872  0.644  1.000
  Li2553  Li1+  0.622  0.978  0.750  1.000
  Li2556  Li1+  0.628  0.981  0.653  1.000
  Li2558  Li1+  0.672  0.822  0.744  1.000
  Li2561  Li1+  0.672  0.822  0.650  1.000
  Li2563  Li1+  0.728  0.978  0.750  1.000
  Li2567  Li1+  0.728  0.978  0.656  1.000
  Li2570  Li1+  0.778  0.928  0.756  1.000
  Li2574  Li1+  0.772  0.825  0.753  1.000
  Li2582  Li1+  0.628  0.981  0.853  1.000
  Li2584  Li1+  0.672  0.822  0.944  1.000
  Li2587  Li1+  0.672  0.822  0.850  1.000
  Li2593  Li1+  0.728  0.978  0.856  1.000
  Li2596  Li1+  0.778  0.928  0.956  1.000
  Li2597  Li1+  0.778  0.822  0.850  1.000
  Li2601  Li1+  0.800  0.100  0.100  1.000
  Li2603  Li1+  0.822  0.072  0.044  1.000
  Li2610  Li1+  0.872  0.022  0.144  1.000
  Li2613  Li1+  0.872  0.022  0.050  1.000
  Li2615  Li1+  0.928  0.178  0.150  1.000
  Li2619  Li1+  0.928  0.178  0.056  1.000
  Li2622  Li1+  0.978  0.128  0.156  1.000
  Li2623  Li1+  0.978  0.022  0.050  1.000
  Li2626  Li1+  0.972  0.025  0.153  1.000
  Li2629  Li1+  0.822  0.072  0.244  1.000
  Li2633  Li1+  0.800  0.100  0.200  1.000
  Li2634  Li1+  0.828  0.181  0.253  1.000
  Li2635  Li1+  0.900  0.100  0.200  1.000
  Li2636  Li1+  0.872  0.022  0.344  1.000
  Li2639  Li1+  0.872  0.022  0.250  1.000
  Li2641  Li1+  0.928  0.178  0.350  1.000
  Li2645  Li1+  0.928  0.178  0.256  1.000
  Li2648  Li1+  0.978  0.128  0.356  1.000
  Li2652  Li1+  0.972  0.025  0.353  1.000
  Li2655  Li1+  0.822  0.072  0.444  1.000
  Li2660  Li1+  0.828  0.181  0.453  1.000
  Li2662  Li1+  0.872  0.022  0.544  1.000
  Li2665  Li1+  0.872  0.022  0.450  1.000
  Li2671  Li1+  0.928  0.178  0.456  1.000
  Li2674  Li1+  0.978  0.128  0.556  1.000
  Li2681  Li1+  0.822  0.072  0.644  1.000
  Li2686  Li1+  0.828  0.181  0.653  1.000
  Li2688  Li1+  0.872  0.022  0.744  1.000
  Li2691  Li1+  0.872  0.022  0.650  1.000
  Li2693  Li1+  0.928  0.178  0.750  1.000
  Li2697  Li1+  0.928  0.178  0.656  1.000
  Li2700  Li1+  0.978  0.128  0.756  1.000
  Li2704  Li1+  0.972  0.025  0.753  1.000
  Li2707  Li1+  0.822  0.072  0.844  1.000
  Li2717  Li1+  0.872  0.022  0.850  1.000
  Li2719  Li1+  0.928  0.178  0.950  1.000
  Li2723  Li1+  0.928  0.178  0.856  1.000
  Li2733  Li1+  0.822  0.272  0.044  1.000
  Li2735  Li1+  0.822  0.378  0.150  1.000
  Li2738  Li1+  0.828  0.381  0.053  1.000
  Li2740  Li1+  0.872  0.222  0.144  1.000
  Li2743  Li1+  0.872  0.222  0.050  1.000
  Li2745  Li1+  0.928  0.378  0.150  1.000
  Li2749  Li1+  0.928  0.378  0.056  1.000
  Li2752  Li1+  0.978  0.328  0.156  1.000
  Li2756  Li1+  0.972  0.225  0.153  1.000
  Li2761  Li1+  0.822  0.378  0.350  1.000
  Li2766  Li1+  0.872  0.222  0.344  1.000
  Li2769  Li1+  0.872  0.222  0.250  1.000
  Li2775  Li1+  0.928  0.378  0.256  1.000
  Li2776  Li1+  0.928  0.272  0.350  1.000
  Li2779  Li1+  0.978  0.222  0.250  1.000
  Li2782  Li1+  0.972  0.225  0.353  1.000
  Li2783  Li1+  0.800  0.300  0.500  1.000
  Li2785  Li1+  0.822  0.272  0.444  1.000
  Li2790  Li1+  0.828  0.381  0.453  1.000
  Li2792  Li1+  0.872  0.222  0.544  1.000
  Li2797  Li1+  0.928  0.378  0.550  1.000
  Li2801  Li1+  0.928  0.378  0.456  1.000
  Li2816  Li1+  0.828  0.381  0.653  1.000
  Li2818  Li1+  0.872  0.222  0.744  1.000
  Li2823  Li1+  0.928  0.378  0.750  1.000
  Li2827  Li1+  0.928  0.378  0.656  1.000
  Li2830  Li1+  0.978  0.328  0.756  1.000
  Li2834  Li1+  0.972  0.225  0.753  1.000
  Li2842  Li1+  0.828  0.381  0.853  1.000
  Li2844  Li1+  0.872  0.222  0.944  1.000
  Li2847  Li1+  0.872  0.222  0.850  1.000
  Li2849  Li1+  0.928  0.378  0.950  1.000
  Li2853  Li1+  0.928  0.378  0.856  1.000
  Li2856  Li1+  0.978  0.328  0.956  1.000
  Li2857  Li1+  0.978  0.222  0.850  1.000
  Li2860  Li1+  0.972  0.225  0.953  1.000
  Li2868  Li1+  0.828  0.581  0.053  1.000
  Li2870  Li1+  0.872  0.422  0.144  1.000
  Li2873  Li1+  0.872  0.422  0.050  1.000
  Li2879  Li1+  0.928  0.578  0.056  1.000
  Li2882  Li1+  0.978  0.528  0.156  1.000
  Li2889  Li1+  0.822  0.472  0.244  1.000
  Li2896  Li1+  0.872  0.422  0.344  1.000
  Li2899  Li1+  0.872  0.422  0.250  1.000
  Li2905  Li1+  0.928  0.578  0.256  1.000
  Li2908  Li1+  0.978  0.528  0.356  1.000
  Li2909  Li1+  0.978  0.422  0.250  1.000
  Li2912  Li1+  0.972  0.425  0.353  1.000
  Li2915  Li1+  0.822  0.472  0.444  1.000
  Li2920  Li1+  0.828  0.581  0.453  1.000
  Li2925  Li1+  0.872  0.422  0.450  1.000
  Li2927  Li1+  0.928  0.578  0.550  1.000
  Li2931  Li1+  0.928  0.578  0.456  1.000
  Li2934  Li1+  0.978  0.528  0.556  1.000
  Li2935  Li1+  0.978  0.422  0.450  1.000
  Li2938  Li1+  0.972  0.425  0.553  1.000
  Li2943  Li1+  0.822  0.578  0.750  1.000
  Li2946  Li1+  0.828  0.581  0.653  1.000
  Li2948  Li1+  0.872  0.422  0.744  1.000
  Li2951  Li1+  0.872  0.422  0.650  1.000
  Li2953  Li1+  0.928  0.578  0.750  1.000
  Li2957  Li1+  0.928  0.578  0.656  1.000
  Li2960  Li1+  0.978  0.528  0.756  1.000
  Li2967  Li1+  0.822  0.472  0.844  1.000
  Li2969  Li1+  0.822  0.578  0.950  1.000
  Li2972  Li1+  0.828  0.581  0.853  1.000
  Li2974  Li1+  0.872  0.422  0.944  1.000
  Li2977  Li1+  0.872  0.422  0.850  1.000
  Li2979  Li1+  0.928  0.578  0.950  1.000
  Li2983  Li1+  0.928  0.578  0.856  1.000
  Li2986  Li1+  0.978  0.528  0.956  1.000
  Li2990  Li1+  0.972  0.425  0.953  1.000
  Li2993  Li1+  0.822  0.672  0.044  1.000
  Li2998  Li1+  0.828  0.781  0.053  1.000
  Li3003  Li1+  0.872  0.622  0.050  1.000
  Li3005  Li1+  0.928  0.778  0.150  1.000
  Li3009  Li1+  0.928  0.778  0.056  1.000
  Li3010  Li1+  0.928  0.672  0.150  1.000
  Li3012  Li1+  0.978  0.728  0.156  1.000
  Li3013  Li1+  0.978  0.622  0.050  1.000
  Li3015  Li1+  0.975  0.728  0.050  1.000
  Li3016  Li1+  0.972  0.625  0.153  1.000
  Li3019  Li1+  0.822  0.672  0.244  1.000
  Li3026  Li1+  0.872  0.622  0.344  1.000
  Li3029  Li1+  0.872  0.622  0.250  1.000
  Li3031  Li1+  0.928  0.778  0.350  1.000
  Li3035  Li1+  0.928  0.778  0.256  1.000
  Li3038  Li1+  0.978  0.728  0.356  1.000
  Li3042  Li1+  0.972  0.625  0.353  1.000
  Li3045  Li1+  0.822  0.672  0.444  1.000
  Li3052  Li1+  0.872  0.622  0.544  1.000
  Li3055  Li1+  0.872  0.622  0.450  1.000
  Li3057  Li1+  0.928  0.778  0.550  1.000
  Li3061  Li1+  0.928  0.778  0.456  1.000
  Li3068  Li1+  0.972  0.625  0.553  1.000
  Li3071  Li1+  0.822  0.672  0.644  1.000
  Li3073  Li1+  0.822  0.778  0.750  1.000
  Li3076  Li1+  0.828  0.781  0.653  1.000
  Li3078  Li1+  0.872  0.622  0.744  1.000
  Li3081  Li1+  0.872  0.622  0.650  1.000
  Li3083  Li1+  0.928  0.778  0.750  1.000
  Li3087  Li1+  0.928  0.778  0.656  1.000
  Li3088  Li1+  0.928  0.672  0.750  1.000
  Li3090  Li1+  0.978  0.728  0.756  1.000
  Li3094  Li1+  0.972  0.625  0.753  1.000
  Li3097  Li1+  0.822  0.672  0.844  1.000
  Li3104  Li1+  0.872  0.622  0.944  1.000
  Li3105  Li1+  0.872  0.728  0.850  1.000
  Li3107  Li1+  0.872  0.622  0.850  1.000
  Li3109  Li1+  0.928  0.778  0.950  1.000
  Li3113  Li1+  0.928  0.778  0.856  1.000
  Li3114  Li1+  0.928  0.672  0.950  1.000
  Li3116  Li1+  0.978  0.728  0.956  1.000
  Li3123  Li1+  0.822  0.872  0.044  1.000
  Li3128  Li1+  0.828  0.981  0.053  1.000
  Li3130  Li1+  0.872  0.822  0.144  1.000
  Li3133  Li1+  0.872  0.822  0.050  1.000
  Li3135  Li1+  0.928  0.978  0.150  1.000
  Li3142  Li1+  0.978  0.928  0.156  1.000
  Li3146  Li1+  0.972  0.825  0.153  1.000
  Li3147  Li1+  0.800  0.900  0.300  1.000
  Li3149  Li1+  0.822  0.872  0.244  1.000
  Li3156  Li1+  0.872  0.822  0.344  1.000
  Li3159  Li1+  0.872  0.822  0.250  1.000
  Li3161  Li1+  0.928  0.978  0.350  1.000
  Li3165  Li1+  0.928  0.978  0.256  1.000
  Li3168  Li1+  0.978  0.928  0.356  1.000
  Li3169  Li1+  0.978  0.822  0.250  1.000
  Li3171  Li1+  0.975  0.928  0.250  1.000
  Li3180  Li1+  0.828  0.981  0.453  1.000
  Li3182  Li1+  0.872  0.822  0.544  1.000
  Li3185  Li1+  0.872  0.822  0.450  1.000
  Li3191  Li1+  0.928  0.978  0.456  1.000
  Li3192  Li1+  0.928  0.872  0.550  1.000
  Li3194  Li1+  0.978  0.928  0.556  1.000
  Li3198  Li1+  0.972  0.825  0.553  1.000
  Li3201  Li1+  0.822  0.872  0.644  1.000
  Li3206  Li1+  0.828  0.981  0.653  1.000
  Li3208  Li1+  0.872  0.822  0.744  1.000
  Li3217  Li1+  0.928  0.978  0.656  1.000
  Li3220  Li1+  0.978  0.928  0.756  1.000
  Li3221  Li1+  0.978  0.822  0.650  1.000
  Li3224  Li1+  0.972  0.825  0.753  1.000
  Li3227  Li1+  0.822  0.872  0.844  1.000
  Li3232  Li1+  0.828  0.981  0.853  1.000
  Li3234  Li1+  0.872  0.822  0.944  1.000
  Li3237  Li1+  0.872  0.822  0.850  1.000
  Li3239  Li1+  0.928  0.978  0.950  1.000
  Li3243  Li1+  0.928  0.978  0.856  1.000
  Li3246  Li1+  0.978  0.928  0.956  1.000
  Li3250  Li1+  0.972  0.825  0.953  1.000
  N24  N3-  0.151  0.050  0.199  1.000
  N24  N3-  0.151  0.050  0.399  1.000
  N24  N3-  0.151  0.050  0.599  1.000
  N24  N3-  0.151  0.050  0.799  1.000
  N24  N3-  0.151  0.050  0.999  1.000
  N24  N3-  0.151  0.250  0.199  1.000
  N24  N3-  0.151  0.250  0.399  1.000
  N24  N3-  0.151  0.250  0.599  1.000
  N24  N3-  0.151  0.250  0.799  1.000
  N24  N3-  0.151  0.250  0.999  1.000
  N24  N3-  0.151  0.450  0.199  1.000
  N24  N3-  0.151  0.450  0.399  1.000
  N24  N3-  0.151  0.450  0.599  1.000
  N24  N3-  0.151  0.450  0.799  1.000
  N24  N3-  0.151  0.450  0.999  1.000
  N24  N3-  0.151  0.650  0.199  1.000
  N24  N3-  0.151  0.650  0.399  1.000
  N24  N3-  0.151  0.650  0.599  1.000
  N24  N3-  0.151  0.650  0.799  1.000
  N24  N3-  0.151  0.650  0.999  1.000
  N24  N3-  0.151  0.850  0.199  1.000
  N24  N3-  0.151  0.850  0.399  1.000
  N24  N3-  0.151  0.850  0.599  1.000
  N24  N3-  0.151  0.850  0.799  1.000
  N24  N3-  0.151  0.850  0.999  1.000
  N24  N3-  0.351  0.050  0.199  1.000
  N24  N3-  0.351  0.050  0.399  1.000
  N24  N3-  0.351  0.050  0.599  1.000
  N24  N3-  0.351  0.050  0.799  1.000
  N24  N3-  0.351  0.050  0.999  1.000
  N24  N3-  0.351  0.250  0.199  1.000
  N24  N3-  0.351  0.250  0.399  1.000
  N24  N3-  0.351  0.250  0.599  1.000
  N24  N3-  0.351  0.250  0.799  1.000
  N24  N3-  0.351  0.250  0.999  1.000
  N24  N3-  0.351  0.450  0.199  1.000
  N24  N3-  0.351  0.450  0.399  1.000
  N24  N3-  0.351  0.450  0.599  1.000
  N24  N3-  0.351  0.450  0.799  1.000
  N24  N3-  0.351  0.450  0.999  1.000
  N24  N3-  0.351  0.650  0.199  1.000
  N24  N3-  0.351  0.650  0.399  1.000
  N24  N3-  0.351  0.650  0.599  1.000
  N24  N3-  0.351  0.650  0.799  1.000
  N24  N3-  0.351  0.650  0.999  1.000
  N24  N3-  0.351  0.850  0.199  1.000
  N24  N3-  0.351  0.850  0.399  1.000
  N24  N3-  0.351  0.850  0.599  1.000
  N24  N3-  0.351  0.850  0.799  1.000
  N24  N3-  0.351  0.850  0.999  1.000
  N24  N3-  0.551  0.050  0.199  1.000
  N24  N3-  0.551  0.050  0.399  1.000
  N24  N3-  0.551  0.050  0.599  1.000
  N24  N3-  0.551  0.050  0.799  1.000
  N24  N3-  0.551  0.050  0.999  1.000
  N24  N3-  0.551  0.250  0.199  1.000
  N24  N3-  0.551  0.250  0.399  1.000
  N24  N3-  0.551  0.250  0.599  1.000
  N24  N3-  0.551  0.250  0.799  1.000
  N24  N3-  0.551  0.250  0.999  1.000
  N24  N3-  0.551  0.450  0.199  1.000
  N24  N3-  0.551  0.450  0.399  1.000
  N24  N3-  0.551  0.450  0.599  1.000
  N24  N3-  0.551  0.450  0.799  1.000
  N24  N3-  0.551  0.450  0.999  1.000
  N24  N3-  0.551  0.650  0.199  1.000
  N24  N3-  0.551  0.650  0.399  1.000
  N24  N3-  0.551  0.650  0.599  1.000
  N24  N3-  0.551  0.650  0.799  1.000
  N24  N3-  0.551  0.650  0.999  1.000
  N24  N3-  0.551  0.850  0.199  1.000
  N24  N3-  0.551  0.850  0.399  1.000
  N24  N3-  0.551  0.850  0.599  1.000
  N24  N3-  0.551  0.850  0.799  1.000
  N24  N3-  0.551  0.850  0.999  1.000
  N24  N3-  0.751  0.050  0.199  1.000
  N24  N3-  0.751  0.050  0.399  1.000
  N24  N3-  0.751  0.050  0.599  1.000
  N24  N3-  0.751  0.050  0.799  1.000
  N24  N3-  0.751  0.050  0.999  1.000
  N24  N3-  0.751  0.250  0.199  1.000
  N24  N3-  0.751  0.250  0.399  1.000
  N24  N3-  0.751  0.250  0.599  1.000
  N24  N3-  0.751  0.250  0.799  1.000
  N24  N3-  0.751  0.250  0.999  1.000
  N24  N3-  0.751  0.450  0.199  1.000
  N24  N3-  0.751  0.450  0.399  1.000
  N24  N3-  0.751  0.450  0.599  1.000
  N24  N3-  0.751  0.450  0.799  1.000
  N24  N3-  0.751  0.450  0.999  1.000
  N24  N3-  0.751  0.650  0.199  1.000
  N24  N3-  0.751  0.650  0.399  1.000
  N24  N3-  0.751  0.650  0.599  1.000
  N24  N3-  0.751  0.650  0.799  1.000
  N24  N3-  0.751  0.650  0.999  1.000
  N24  N3-  0.751  0.850  0.199  1.000
  N24  N3-  0.751  0.850  0.399  1.000
  N24  N3-  0.751  0.850  0.599  1.000
  N24  N3-  0.751  0.850  0.799  1.000
  N24  N3-  0.751  0.850  0.999  1.000
  N24  N3-  0.951  0.050  0.199  1.000
  N24  N3-  0.951  0.050  0.399  1.000
  N24  N3-  0.951  0.050  0.599  1.000
  N24  N3-  0.951  0.050  0.799  1.000
  N24  N3-  0.951  0.050  0.999  1.000
  N24  N3-  0.951  0.250  0.199  1.000
  N24  N3-  0.951  0.250  0.399  1.000
  N24  N3-  0.951  0.250  0.599  1.000
  N24  N3-  0.951  0.250  0.799  1.000
  N24  N3-  0.951  0.250  0.999  1.000
  N24  N3-  0.951  0.450  0.199  1.000
  N24  N3-  0.951  0.450  0.399  1.000
  N24  N3-  0.951  0.450  0.599  1.000
  N24  N3-  0.951  0.450  0.799  1.000
  N24  N3-  0.951  0.450  0.999  1.000
  N24  N3-  0.951  0.650  0.199  1.000
  N24  N3-  0.951  0.650  0.399  1.000
  N24  N3-  0.951  0.650  0.599  1.000
  N24  N3-  0.951  0.650  0.799  1.000
  N24  N3-  0.951  0.650  0.999  1.000
  N24  N3-  0.951  0.850  0.199  1.000
  N24  N3-  0.951  0.850  0.399  1.000
  N24  N3-  0.951  0.850  0.599  1.000
  N24  N3-  0.951  0.850  0.799  1.000
  N24  N3-  0.951  0.850  0.999  1.000
  N25  N3-  0.152  0.155  0.103  1.000
  N25  N3-  0.152  0.155  0.303  1.000
  N25  N3-  0.152  0.155  0.503  1.000
  N25  N3-  0.152  0.155  0.703  1.000
  N25  N3-  0.152  0.155  0.903  1.000
  N25  N3-  0.152  0.355  0.103  1.000
  N25  N3-  0.152  0.355  0.303  1.000
  N25  N3-  0.152  0.355  0.503  1.000
  N25  N3-  0.152  0.355  0.703  1.000
  N25  N3-  0.152  0.355  0.903  1.000
  N25  N3-  0.152  0.555  0.103  1.000
  N25  N3-  0.152  0.555  0.303  1.000
  N25  N3-  0.152  0.555  0.503  1.000
  N25  N3-  0.152  0.555  0.703  1.000
  N25  N3-  0.152  0.555  0.903  1.000
  N25  N3-  0.152  0.755  0.103  1.000
  N25  N3-  0.152  0.755  0.303  1.000
  N25  N3-  0.152  0.755  0.503  1.000
  N25  N3-  0.152  0.755  0.703  1.000
  N25  N3-  0.152  0.755  0.903  1.000
  N25  N3-  0.152  0.955  0.103  1.000
  N25  N3-  0.152  0.955  0.303  1.000
  N25  N3-  0.152  0.955  0.503  1.000
  N25  N3-  0.152  0.955  0.703  1.000
  N25  N3-  0.152  0.955  0.903  1.000
  N25  N3-  0.352  0.155  0.103  1.000
  N25  N3-  0.352  0.155  0.303  1.000
  N25  N3-  0.352  0.155  0.503  1.000
  N25  N3-  0.352  0.155  0.703  1.000
  N25  N3-  0.352  0.155  0.903  1.000
  N25  N3-  0.352  0.355  0.103  1.000
  N25  N3-  0.352  0.355  0.303  1.000
  N25  N3-  0.352  0.355  0.503  1.000
  N25  N3-  0.352  0.355  0.703  1.000
  N25  N3-  0.352  0.355  0.903  1.000
  N25  N3-  0.352  0.555  0.103  1.000
  N25  N3-  0.352  0.555  0.303  1.000
  N25  N3-  0.352  0.555  0.503  1.000
  N25  N3-  0.352  0.555  0.703  1.000
  N25  N3-  0.352  0.555  0.903  1.000
  N25  N3-  0.352  0.755  0.103  1.000
  N25  N3-  0.352  0.755  0.303  1.000
  N25  N3-  0.352  0.755  0.503  1.000
  N25  N3-  0.352  0.755  0.703  1.000
  N25  N3-  0.352  0.755  0.903  1.000
  N25  N3-  0.352  0.955  0.103  1.000
  N25  N3-  0.352  0.955  0.303  1.000
  N25  N3-  0.352  0.955  0.503  1.000
  N25  N3-  0.352  0.955  0.703  1.000
  N25  N3-  0.352  0.955  0.903  1.000
  N25  N3-  0.552  0.155  0.103  1.000
  N25  N3-  0.552  0.155  0.303  1.000
  N25  N3-  0.552  0.155  0.503  1.000
  N25  N3-  0.552  0.155  0.703  1.000
  N25  N3-  0.552  0.155  0.903  1.000
  N25  N3-  0.552  0.355  0.103  1.000
  N25  N3-  0.552  0.355  0.303  1.000
  N25  N3-  0.552  0.355  0.503  1.000
  N25  N3-  0.552  0.355  0.703  1.000
  N25  N3-  0.552  0.355  0.903  1.000
  N25  N3-  0.552  0.555  0.103  1.000
  N25  N3-  0.552  0.555  0.303  1.000
  N25  N3-  0.552  0.555  0.503  1.000
  N25  N3-  0.552  0.555  0.703  1.000
  N25  N3-  0.552  0.555  0.903  1.000
  N25  N3-  0.552  0.755  0.103  1.000
  N25  N3-  0.552  0.755  0.303  1.000
  N25  N3-  0.552  0.755  0.503  1.000
  N25  N3-  0.552  0.755  0.703  1.000
  N25  N3-  0.552  0.755  0.903  1.000
  N25  N3-  0.552  0.955  0.103  1.000
  N25  N3-  0.552  0.955  0.303  1.000
  N25  N3-  0.552  0.955  0.503  1.000
  N25  N3-  0.552  0.955  0.703  1.000
  N25  N3-  0.552  0.955  0.903  1.000
  N25  N3-  0.752  0.155  0.103  1.000
  N25  N3-  0.752  0.155  0.303  1.000
  N25  N3-  0.752  0.155  0.503  1.000
  N25  N3-  0.752  0.155  0.703  1.000
  N25  N3-  0.752  0.155  0.903  1.000
  N25  N3-  0.752  0.355  0.103  1.000
  N25  N3-  0.752  0.355  0.303  1.000
  N25  N3-  0.752  0.355  0.503  1.000
  N25  N3-  0.752  0.355  0.703  1.000
  N25  N3-  0.752  0.355  0.903  1.000
  N25  N3-  0.752  0.555  0.103  1.000
  N25  N3-  0.752  0.555  0.303  1.000
  N25  N3-  0.752  0.555  0.503  1.000
  N25  N3-  0.752  0.555  0.703  1.000
  N25  N3-  0.752  0.555  0.903  1.000
  N25  N3-  0.752  0.755  0.103  1.000
  N25  N3-  0.752  0.755  0.303  1.000
  N25  N3-  0.752  0.755  0.503  1.000
  N25  N3-  0.752  0.755  0.703  1.000
  N25  N3-  0.752  0.755  0.903  1.000
  N25  N3-  0.752  0.955  0.103  1.000
  N25  N3-  0.752  0.955  0.303  1.000
  N25  N3-  0.752  0.955  0.503  1.000
  N25  N3-  0.752  0.955  0.703  1.000
  N25  N3-  0.752  0.955  0.903  1.000
  N25  N3-  0.952  0.155  0.103  1.000
  N25  N3-  0.952  0.155  0.303  1.000
  N25  N3-  0.952  0.155  0.503  1.000
  N25  N3-  0.952  0.155  0.703  1.000
  N25  N3-  0.952  0.155  0.903  1.000
  N25  N3-  0.952  0.355  0.103  1.000
  N25  N3-  0.952  0.355  0.303  1.000
  N25  N3-  0.952  0.355  0.503  1.000
  N25  N3-  0.952  0.355  0.703  1.000
  N25  N3-  0.952  0.355  0.903  1.000
  N25  N3-  0.952  0.555  0.103  1.000
  N25  N3-  0.952  0.555  0.303  1.000
  N25  N3-  0.952  0.555  0.503  1.000
  N25  N3-  0.952  0.555  0.703  1.000
  N25  N3-  0.952  0.555  0.903  1.000
  N25  N3-  0.952  0.755  0.103  1.000
  N25  N3-  0.952  0.755  0.303  1.000
  N25  N3-  0.952  0.755  0.503  1.000
  N25  N3-  0.952  0.755  0.703  1.000
  N25  N3-  0.952  0.755  0.903  1.000
  N25  N3-  0.952  0.955  0.103  1.000
  N25  N3-  0.952  0.955  0.303  1.000
  N25  N3-  0.952  0.955  0.503  1.000
  N25  N3-  0.952  0.955  0.703  1.000
  N25  N3-  0.952  0.955  0.903  1.000
  N26  N3-  0.042  0.048  0.194  1.000
  N26  N3-  0.042  0.048  0.394  1.000
  N26  N3-  0.042  0.048  0.594  1.000
  N26  N3-  0.042  0.048  0.794  1.000
  N26  N3-  0.042  0.048  0.994  1.000
  N26  N3-  0.042  0.248  0.194  1.000
  N26  N3-  0.042  0.248  0.394  1.000
  N26  N3-  0.042  0.248  0.594  1.000
  N26  N3-  0.042  0.248  0.794  1.000
  N26  N3-  0.042  0.248  0.994  1.000
  N26  N3-  0.042  0.448  0.194  1.000
  N26  N3-  0.042  0.448  0.394  1.000
  N26  N3-  0.042  0.448  0.594  1.000
  N26  N3-  0.042  0.448  0.794  1.000
  N26  N3-  0.042  0.448  0.994  1.000
  N26  N3-  0.042  0.648  0.194  1.000
  N26  N3-  0.042  0.648  0.394  1.000
  N26  N3-  0.042  0.648  0.594  1.000
  N26  N3-  0.042  0.648  0.794  1.000
  N26  N3-  0.042  0.648  0.994  1.000
  N26  N3-  0.042  0.848  0.194  1.000
  N26  N3-  0.042  0.848  0.394  1.000
  N26  N3-  0.042  0.848  0.594  1.000
  N26  N3-  0.042  0.848  0.794  1.000
  N26  N3-  0.042  0.848  0.994  1.000
  N26  N3-  0.242  0.048  0.194  1.000
  N26  N3-  0.242  0.048  0.394  1.000
  N26  N3-  0.242  0.048  0.594  1.000
  N26  N3-  0.242  0.048  0.794  1.000
  N26  N3-  0.242  0.048  0.994  1.000
  N26  N3-  0.242  0.248  0.194  1.000
  N26  N3-  0.242  0.248  0.394  1.000
  N26  N3-  0.242  0.248  0.594  1.000
  N26  N3-  0.242  0.248  0.794  1.000
  N26  N3-  0.242  0.248  0.994  1.000
  N26  N3-  0.242  0.448  0.194  1.000
  N26  N3-  0.242  0.448  0.394  1.000
  N26  N3-  0.242  0.448  0.594  1.000
  N26  N3-  0.242  0.448  0.794  1.000
  N26  N3-  0.242  0.448  0.994  1.000
  N26  N3-  0.242  0.648  0.194  1.000
  N26  N3-  0.242  0.648  0.394  1.000
  N26  N3-  0.242  0.648  0.594  1.000
  N26  N3-  0.242  0.648  0.794  1.000
  N26  N3-  0.242  0.648  0.994  1.000
  N26  N3-  0.242  0.848  0.194  1.000
  N26  N3-  0.242  0.848  0.394  1.000
  N26  N3-  0.242  0.848  0.594  1.000
  N26  N3-  0.242  0.848  0.794  1.000
  N26  N3-  0.242  0.848  0.994  1.000
  N26  N3-  0.442  0.048  0.194  1.000
  N26  N3-  0.442  0.048  0.394  1.000
  N26  N3-  0.442  0.048  0.594  1.000
  N26  N3-  0.442  0.048  0.794  1.000
  N26  N3-  0.442  0.048  0.994  1.000
  N26  N3-  0.442  0.248  0.194  1.000
  N26  N3-  0.442  0.248  0.394  1.000
  N26  N3-  0.442  0.248  0.594  1.000
  N26  N3-  0.442  0.248  0.794  1.000
  N26  N3-  0.442  0.248  0.994  1.000
  N26  N3-  0.442  0.448  0.194  1.000
  N26  N3-  0.442  0.448  0.394  1.000
  N26  N3-  0.442  0.448  0.594  1.000
  N26  N3-  0.442  0.448  0.794  1.000
  N26  N3-  0.442  0.448  0.994  1.000
  N26  N3-  0.442  0.648  0.194  1.000
  N26  N3-  0.442  0.648  0.394  1.000
  N26  N3-  0.442  0.648  0.594  1.000
  N26  N3-  0.442  0.648  0.794  1.000
  N26  N3-  0.442  0.648  0.994  1.000
  N26  N3-  0.442  0.848  0.194  1.000
  N26  N3-  0.442  0.848  0.394  1.000
  N26  N3-  0.442  0.848  0.594  1.000
  N26  N3-  0.442  0.848  0.794  1.000
  N26  N3-  0.442  0.848  0.994  1.000
  N26  N3-  0.642  0.048  0.194  1.000
  N26  N3-  0.642  0.048  0.394  1.000
  N26  N3-  0.642  0.048  0.594  1.000
  N26  N3-  0.642  0.048  0.794  1.000
  N26  N3-  0.642  0.048  0.994  1.000
  N26  N3-  0.642  0.248  0.194  1.000
  N26  N3-  0.642  0.248  0.394  1.000
  N26  N3-  0.642  0.248  0.594  1.000
  N26  N3-  0.642  0.248  0.794  1.000
  N26  N3-  0.642  0.248  0.994  1.000
  N26  N3-  0.642  0.448  0.194  1.000
  N26  N3-  0.642  0.448  0.394  1.000
  N26  N3-  0.642  0.448  0.594  1.000
  N26  N3-  0.642  0.448  0.794  1.000
  N26  N3-  0.642  0.448  0.994  1.000
  N26  N3-  0.642  0.648  0.194  1.000
  N26  N3-  0.642  0.648  0.394  1.000
  N26  N3-  0.642  0.648  0.594  1.000
  N26  N3-  0.642  0.648  0.794  1.000
  N26  N3-  0.642  0.648  0.994  1.000
  N26  N3-  0.642  0.848  0.194  1.000
  N26  N3-  0.642  0.848  0.394  1.000
  N26  N3-  0.642  0.848  0.594  1.000
  N26  N3-  0.642  0.848  0.794  1.000
  N26  N3-  0.642  0.848  0.994  1.000
  N26  N3-  0.842  0.048  0.194  1.000
  N26  N3-  0.842  0.048  0.394  1.000
  N26  N3-  0.842  0.048  0.594  1.000
  N26  N3-  0.842  0.048  0.794  1.000
  N26  N3-  0.842  0.048  0.994  1.000
  N26  N3-  0.842  0.248  0.194  1.000
  N26  N3-  0.842  0.248  0.394  1.000
  N26  N3-  0.842  0.248  0.594  1.000
  N26  N3-  0.842  0.248  0.794  1.000
  N26  N3-  0.842  0.248  0.994  1.000
  N26  N3-  0.842  0.448  0.194  1.000
  N26  N3-  0.842  0.448  0.394  1.000
  N26  N3-  0.842  0.448  0.594  1.000
  N26  N3-  0.842  0.448  0.794  1.000
  N26  N3-  0.842  0.448  0.994  1.000
  N26  N3-  0.842  0.648  0.194  1.000
  N26  N3-  0.842  0.648  0.394  1.000
  N26  N3-  0.842  0.648  0.594  1.000
  N26  N3-  0.842  0.648  0.794  1.000
  N26  N3-  0.842  0.648  0.994  1.000
  N26  N3-  0.842  0.848  0.194  1.000
  N26  N3-  0.842  0.848  0.394  1.000
  N26  N3-  0.842  0.848  0.594  1.000
  N26  N3-  0.842  0.848  0.794  1.000
  N26  N3-  0.842  0.848  0.994  1.000
  N27  N3-  0.154  0.048  0.107  1.000
  N27  N3-  0.154  0.048  0.307  1.000
  N27  N3-  0.154  0.048  0.507  1.000
  N27  N3-  0.154  0.048  0.707  1.000
  N27  N3-  0.154  0.048  0.907  1.000
  N27  N3-  0.154  0.248  0.107  1.000
  N27  N3-  0.154  0.248  0.307  1.000
  N27  N3-  0.154  0.248  0.507  1.000
  N27  N3-  0.154  0.248  0.707  1.000
  N27  N3-  0.154  0.248  0.907  1.000
  N27  N3-  0.154  0.448  0.107  1.000
  N27  N3-  0.154  0.448  0.307  1.000
  N27  N3-  0.154  0.448  0.507  1.000
  N27  N3-  0.154  0.448  0.707  1.000
  N27  N3-  0.154  0.448  0.907  1.000
  N27  N3-  0.154  0.648  0.107  1.000
  N27  N3-  0.154  0.648  0.307  1.000
  N27  N3-  0.154  0.648  0.507  1.000
  N27  N3-  0.154  0.648  0.707  1.000
  N27  N3-  0.154  0.648  0.907  1.000
  N27  N3-  0.154  0.848  0.107  1.000
  N27  N3-  0.154  0.848  0.307  1.000
  N27  N3-  0.154  0.848  0.507  1.000
  N27  N3-  0.154  0.848  0.707  1.000
  N27  N3-  0.154  0.848  0.907  1.000
  N27  N3-  0.354  0.048  0.107  1.000
  N27  N3-  0.354  0.048  0.307  1.000
  N27  N3-  0.354  0.048  0.507  1.000
  N27  N3-  0.354  0.048  0.707  1.000
  N27  N3-  0.354  0.048  0.907  1.000
  N27  N3-  0.354  0.248  0.107  1.000
  N27  N3-  0.354  0.248  0.307  1.000
  N27  N3-  0.354  0.248  0.507  1.000
  N27  N3-  0.354  0.248  0.707  1.000
  N27  N3-  0.354  0.248  0.907  1.000
  N27  N3-  0.354  0.448  0.107  1.000
  N27  N3-  0.354  0.448  0.307  1.000
  N27  N3-  0.354  0.448  0.507  1.000
  N27  N3-  0.354  0.448  0.707  1.000
  N27  N3-  0.354  0.448  0.907  1.000
  N27  N3-  0.354  0.648  0.107  1.000
  N27  N3-  0.354  0.648  0.307  1.000
  N27  N3-  0.354  0.648  0.507  1.000
  N27  N3-  0.354  0.648  0.707  1.000
  N27  N3-  0.354  0.648  0.907  1.000
  N27  N3-  0.354  0.848  0.107  1.000
  N27  N3-  0.354  0.848  0.307  1.000
  N27  N3-  0.354  0.848  0.507  1.000
  N27  N3-  0.354  0.848  0.707  1.000
  N27  N3-  0.354  0.848  0.907  1.000
  N27  N3-  0.554  0.048  0.107  1.000
  N27  N3-  0.554  0.048  0.307  1.000
  N27  N3-  0.554  0.048  0.507  1.000
  N27  N3-  0.554  0.048  0.707  1.000
  N27  N3-  0.554  0.048  0.907  1.000
  N27  N3-  0.554  0.248  0.107  1.000
  N27  N3-  0.554  0.248  0.307  1.000
  N27  N3-  0.554  0.248  0.507  1.000
  N27  N3-  0.554  0.248  0.707  1.000
  N27  N3-  0.554  0.248  0.907  1.000
  N27  N3-  0.554  0.448  0.107  1.000
  N27  N3-  0.554  0.448  0.307  1.000
  N27  N3-  0.554  0.448  0.507  1.000
  N27  N3-  0.554  0.448  0.707  1.000
  N27  N3-  0.554  0.448  0.907  1.000
  N27  N3-  0.554  0.648  0.107  1.000
  N27  N3-  0.554  0.648  0.307  1.000
  N27  N3-  0.554  0.648  0.507  1.000
  N27  N3-  0.554  0.648  0.707  1.000
  N27  N3-  0.554  0.648  0.907  1.000
  N27  N3-  0.554  0.848  0.107  1.000
  N27  N3-  0.554  0.848  0.307  1.000
  N27  N3-  0.554  0.848  0.507  1.000
  N27  N3-  0.554  0.848  0.707  1.000
  N27  N3-  0.554  0.848  0.907  1.000
  N27  N3-  0.754  0.048  0.107  1.000
  N27  N3-  0.754  0.048  0.307  1.000
  N27  N3-  0.754  0.048  0.507  1.000
  N27  N3-  0.754  0.048  0.707  1.000
  N27  N3-  0.754  0.048  0.907  1.000
  N27  N3-  0.754  0.248  0.107  1.000
  N27  N3-  0.754  0.248  0.307  1.000
  N27  N3-  0.754  0.248  0.507  1.000
  N27  N3-  0.754  0.248  0.707  1.000
  N27  N3-  0.754  0.248  0.907  1.000
  N27  N3-  0.754  0.448  0.107  1.000
  N27  N3-  0.754  0.448  0.307  1.000
  N27  N3-  0.754  0.448  0.507  1.000
  N27  N3-  0.754  0.448  0.707  1.000
  N27  N3-  0.754  0.448  0.907  1.000
  N27  N3-  0.754  0.648  0.107  1.000
  N27  N3-  0.754  0.648  0.307  1.000
  N27  N3-  0.754  0.648  0.507  1.000
  N27  N3-  0.754  0.648  0.707  1.000
  N27  N3-  0.754  0.648  0.907  1.000
  N27  N3-  0.754  0.848  0.107  1.000
  N27  N3-  0.754  0.848  0.307  1.000
  N27  N3-  0.754  0.848  0.507  1.000
  N27  N3-  0.754  0.848  0.707  1.000
  N27  N3-  0.754  0.848  0.907  1.000
  N27  N3-  0.954  0.048  0.107  1.000
  N27  N3-  0.954  0.048  0.307  1.000
  N27  N3-  0.954  0.048  0.507  1.000
  N27  N3-  0.954  0.048  0.707  1.000
  N27  N3-  0.954  0.048  0.907  1.000
  N27  N3-  0.954  0.248  0.107  1.000
  N27  N3-  0.954  0.248  0.307  1.000
  N27  N3-  0.954  0.248  0.507  1.000
  N27  N3-  0.954  0.248  0.707  1.000
  N27  N3-  0.954  0.248  0.907  1.000
  N27  N3-  0.954  0.448  0.107  1.000
  N27  N3-  0.954  0.448  0.307  1.000
  N27  N3-  0.954  0.448  0.507  1.000
  N27  N3-  0.954  0.448  0.707  1.000
  N27  N3-  0.954  0.448  0.907  1.000
  N27  N3-  0.954  0.648  0.107  1.000
  N27  N3-  0.954  0.648  0.307  1.000
  N27  N3-  0.954  0.648  0.507  1.000
  N27  N3-  0.954  0.648  0.707  1.000
  N27  N3-  0.954  0.648  0.907  1.000
  N27  N3-  0.954  0.848  0.107  1.000
  N27  N3-  0.954  0.848  0.307  1.000
  N27  N3-  0.954  0.848  0.507  1.000
  N27  N3-  0.954  0.848  0.707  1.000
  N27  N3-  0.954  0.848  0.907  1.000
  N28  N3-  0.048  0.151  0.003  1.000
  N28  N3-  0.048  0.151  0.203  1.000
  N28  N3-  0.048  0.151  0.403  1.000
  N28  N3-  0.048  0.151  0.603  1.000
  N28  N3-  0.048  0.151  0.803  1.000
  N28  N3-  0.048  0.351  0.003  1.000
  N28  N3-  0.048  0.351  0.203  1.000
  N28  N3-  0.048  0.351  0.403  1.000
  N28  N3-  0.048  0.351  0.603  1.000
  N28  N3-  0.048  0.351  0.803  1.000
  N28  N3-  0.048  0.551  0.003  1.000
  N28  N3-  0.048  0.551  0.203  1.000
  N28  N3-  0.048  0.551  0.403  1.000
  N28  N3-  0.048  0.551  0.603  1.000
  N28  N3-  0.048  0.551  0.803  1.000
  N28  N3-  0.048  0.751  0.003  1.000
  N28  N3-  0.048  0.751  0.203  1.000
  N28  N3-  0.048  0.751  0.403  1.000
  N28  N3-  0.048  0.751  0.603  1.000
  N28  N3-  0.048  0.751  0.803  1.000
  N28  N3-  0.048  0.951  0.003  1.000
  N28  N3-  0.048  0.951  0.203  1.000
  N28  N3-  0.048  0.951  0.403  1.000
  N28  N3-  0.048  0.951  0.603  1.000
  N28  N3-  0.048  0.951  0.803  1.000
  N28  N3-  0.248  0.151  0.003  1.000
  N28  N3-  0.248  0.151  0.203  1.000
  N28  N3-  0.248  0.151  0.403  1.000
  N28  N3-  0.248  0.151  0.603  1.000
  N28  N3-  0.248  0.151  0.803  1.000
  N28  N3-  0.248  0.351  0.003  1.000
  N28  N3-  0.248  0.351  0.203  1.000
  N28  N3-  0.248  0.351  0.403  1.000
  N28  N3-  0.248  0.351  0.603  1.000
  N28  N3-  0.248  0.351  0.803  1.000
  N28  N3-  0.248  0.551  0.003  1.000
  N28  N3-  0.248  0.551  0.203  1.000
  N28  N3-  0.248  0.551  0.403  1.000
  N28  N3-  0.248  0.551  0.603  1.000
  N28  N3-  0.248  0.551  0.803  1.000
  N28  N3-  0.248  0.751  0.003  1.000
  N28  N3-  0.248  0.751  0.203  1.000
  N28  N3-  0.248  0.751  0.403  1.000
  N28  N3-  0.248  0.751  0.603  1.000
  N28  N3-  0.248  0.751  0.803  1.000
  N28  N3-  0.248  0.951  0.003  1.000
  N28  N3-  0.248  0.951  0.203  1.000
  N28  N3-  0.248  0.951  0.403  1.000
  N28  N3-  0.248  0.951  0.603  1.000
  N28  N3-  0.248  0.951  0.803  1.000
  N28  N3-  0.448  0.151  0.003  1.000
  N28  N3-  0.448  0.151  0.203  1.000
  N28  N3-  0.448  0.151  0.403  1.000
  N28  N3-  0.448  0.151  0.603  1.000
  N28  N3-  0.448  0.151  0.803  1.000
  N28  N3-  0.448  0.351  0.003  1.000
  N28  N3-  0.448  0.351  0.203  1.000
  N28  N3-  0.448  0.351  0.403  1.000
  N28  N3-  0.448  0.351  0.603  1.000
  N28  N3-  0.448  0.351  0.803  1.000
  N28  N3-  0.448  0.551  0.003  1.000
  N28  N3-  0.448  0.551  0.203  1.000
  N28  N3-  0.448  0.551  0.403  1.000
  N28  N3-  0.448  0.551  0.603  1.000
  N28  N3-  0.448  0.551  0.803  1.000
  N28  N3-  0.448  0.751  0.003  1.000
  N28  N3-  0.448  0.751  0.203  1.000
  N28  N3-  0.448  0.751  0.403  1.000
  N28  N3-  0.448  0.751  0.603  1.000
  N28  N3-  0.448  0.751  0.803  1.000
  N28  N3-  0.448  0.951  0.003  1.000
  N28  N3-  0.448  0.951  0.203  1.000
  N28  N3-  0.448  0.951  0.403  1.000
  N28  N3-  0.448  0.951  0.603  1.000
  N28  N3-  0.448  0.951  0.803  1.000
  N28  N3-  0.648  0.151  0.003  1.000
  N28  N3-  0.648  0.151  0.203  1.000
  N28  N3-  0.648  0.151  0.403  1.000
  N28  N3-  0.648  0.151  0.603  1.000
  N28  N3-  0.648  0.151  0.803  1.000
  N28  N3-  0.648  0.351  0.003  1.000
  N28  N3-  0.648  0.351  0.203  1.000
  N28  N3-  0.648  0.351  0.403  1.000
  N28  N3-  0.648  0.351  0.603  1.000
  N28  N3-  0.648  0.351  0.803  1.000
  N28  N3-  0.648  0.551  0.003  1.000
  N28  N3-  0.648  0.551  0.203  1.000
  N28  N3-  0.648  0.551  0.403  1.000
  N28  N3-  0.648  0.551  0.603  1.000
  N28  N3-  0.648  0.551  0.803  1.000
  N28  N3-  0.648  0.751  0.003  1.000
  N28  N3-  0.648  0.751  0.203  1.000
  N28  N3-  0.648  0.751  0.403  1.000
  N28  N3-  0.648  0.751  0.603  1.000
  N28  N3-  0.648  0.751  0.803  1.000
  N28  N3-  0.648  0.951  0.003  1.000
  N28  N3-  0.648  0.951  0.203  1.000
  N28  N3-  0.648  0.951  0.403  1.000
  N28  N3-  0.648  0.951  0.603  1.000
  N28  N3-  0.648  0.951  0.803  1.000
  N28  N3-  0.848  0.151  0.003  1.000
  N28  N3-  0.848  0.151  0.203  1.000
  N28  N3-  0.848  0.151  0.403  1.000
  N28  N3-  0.848  0.151  0.603  1.000
  N28  N3-  0.848  0.151  0.803  1.000
  N28  N3-  0.848  0.351  0.003  1.000
  N28  N3-  0.848  0.351  0.203  1.000
  N28  N3-  0.848  0.351  0.403  1.000
  N28  N3-  0.848  0.351  0.603  1.000
  N28  N3-  0.848  0.351  0.803  1.000
  N28  N3-  0.848  0.551  0.003  1.000
  N28  N3-  0.848  0.551  0.203  1.000
  N28  N3-  0.848  0.551  0.403  1.000
  N28  N3-  0.848  0.551  0.603  1.000
  N28  N3-  0.848  0.551  0.803  1.000
  N28  N3-  0.848  0.751  0.003  1.000
  N28  N3-  0.848  0.751  0.203  1.000
  N28  N3-  0.848  0.751  0.403  1.000
  N28  N3-  0.848  0.751  0.603  1.000
  N28  N3-  0.848  0.751  0.803  1.000
  N28  N3-  0.848  0.951  0.003  1.000
  N28  N3-  0.848  0.951  0.203  1.000
  N28  N3-  0.848  0.951  0.403  1.000
  N28  N3-  0.848  0.951  0.603  1.000
  N28  N3-  0.848  0.951  0.803  1.000
  N29  N3-  0.049  0.048  0.099  1.000
  N29  N3-  0.049  0.048  0.299  1.000
  N29  N3-  0.049  0.048  0.499  1.000
  N29  N3-  0.049  0.048  0.699  1.000
  N29  N3-  0.049  0.048  0.899  1.000
  N29  N3-  0.049  0.248  0.099  1.000
  N29  N3-  0.049  0.248  0.299  1.000
  N29  N3-  0.049  0.248  0.499  1.000
  N29  N3-  0.049  0.248  0.699  1.000
  N29  N3-  0.049  0.248  0.899  1.000
  N29  N3-  0.049  0.448  0.099  1.000
  N29  N3-  0.049  0.448  0.299  1.000
  N29  N3-  0.049  0.448  0.499  1.000
  N29  N3-  0.049  0.448  0.699  1.000
  N29  N3-  0.049  0.448  0.899  1.000
  N29  N3-  0.049  0.648  0.099  1.000
  N29  N3-  0.049  0.648  0.299  1.000
  N29  N3-  0.049  0.648  0.499  1.000
  N29  N3-  0.049  0.648  0.699  1.000
  N29  N3-  0.049  0.648  0.899  1.000
  N29  N3-  0.049  0.848  0.099  1.000
  N29  N3-  0.049  0.848  0.299  1.000
  N29  N3-  0.049  0.848  0.499  1.000
  N29  N3-  0.049  0.848  0.699  1.000
  N29  N3-  0.049  0.848  0.899  1.000
  N29  N3-  0.249  0.048  0.099  1.000
  N29  N3-  0.249  0.048  0.299  1.000
  N29  N3-  0.249  0.048  0.499  1.000
  N29  N3-  0.249  0.048  0.699  1.000
  N29  N3-  0.249  0.048  0.899  1.000
  N29  N3-  0.249  0.248  0.099  1.000
  N29  N3-  0.249  0.248  0.299  1.000
  N29  N3-  0.249  0.248  0.499  1.000
  N29  N3-  0.249  0.248  0.699  1.000
  N29  N3-  0.249  0.248  0.899  1.000
  N29  N3-  0.249  0.448  0.099  1.000
  N29  N3-  0.249  0.448  0.299  1.000
  N29  N3-  0.249  0.448  0.499  1.000
  N29  N3-  0.249  0.448  0.699  1.000
  N29  N3-  0.249  0.448  0.899  1.000
  N29  N3-  0.249  0.648  0.099  1.000
  N29  N3-  0.249  0.648  0.299  1.000
  N29  N3-  0.249  0.648  0.499  1.000
  N29  N3-  0.249  0.648  0.699  1.000
  N29  N3-  0.249  0.648  0.899  1.000
  N29  N3-  0.249  0.848  0.099  1.000
  N29  N3-  0.249  0.848  0.299  1.000
  N29  N3-  0.249  0.848  0.499  1.000
  N29  N3-  0.249  0.848  0.699  1.000
  N29  N3-  0.249  0.848  0.899  1.000
  N29  N3-  0.449  0.048  0.099  1.000
  N29  N3-  0.449  0.048  0.299  1.000
  N29  N3-  0.449  0.048  0.499  1.000
  N29  N3-  0.449  0.048  0.699  1.000
  N29  N3-  0.449  0.048  0.899  1.000
  N29  N3-  0.449  0.248  0.099  1.000
  N29  N3-  0.449  0.248  0.299  1.000
  N29  N3-  0.449  0.248  0.499  1.000
  N29  N3-  0.449  0.248  0.699  1.000
  N29  N3-  0.449  0.248  0.899  1.000
  N29  N3-  0.449  0.448  0.099  1.000
  N29  N3-  0.449  0.448  0.299  1.000
  N29  N3-  0.449  0.448  0.499  1.000
  N29  N3-  0.449  0.448  0.699  1.000
  N29  N3-  0.449  0.448  0.899  1.000
  N29  N3-  0.449  0.648  0.099  1.000
  N29  N3-  0.449  0.648  0.299  1.000
  N29  N3-  0.449  0.648  0.499  1.000
  N29  N3-  0.449  0.648  0.699  1.000
  N29  N3-  0.449  0.648  0.899  1.000
  N29  N3-  0.449  0.848  0.099  1.000
  N29  N3-  0.449  0.848  0.299  1.000
  N29  N3-  0.449  0.848  0.499  1.000
  N29  N3-  0.449  0.848  0.699  1.000
  N29  N3-  0.449  0.848  0.899  1.000
  N29  N3-  0.649  0.048  0.099  1.000
  N29  N3-  0.649  0.048  0.299  1.000
  N29  N3-  0.649  0.048  0.499  1.000
  N29  N3-  0.649  0.048  0.699  1.000
  N29  N3-  0.649  0.048  0.899  1.000
  N29  N3-  0.649  0.248  0.099  1.000
  N29  N3-  0.649  0.248  0.299  1.000
  N29  N3-  0.649  0.248  0.499  1.000
  N29  N3-  0.649  0.248  0.699  1.000
  N29  N3-  0.649  0.248  0.899  1.000
  N29  N3-  0.649  0.448  0.099  1.000
  N29  N3-  0.649  0.448  0.299  1.000
  N29  N3-  0.649  0.448  0.499  1.000
  N29  N3-  0.649  0.448  0.699  1.000
  N29  N3-  0.649  0.448  0.899  1.000
  N29  N3-  0.649  0.648  0.099  1.000
  N29  N3-  0.649  0.648  0.299  1.000
  N29  N3-  0.649  0.648  0.499  1.000
  N29  N3-  0.649  0.648  0.699  1.000
  N29  N3-  0.649  0.648  0.899  1.000
  N29  N3-  0.649  0.848  0.099  1.000
  N29  N3-  0.649  0.848  0.299  1.000
  N29  N3-  0.649  0.848  0.499  1.000
  N29  N3-  0.649  0.848  0.699  1.000
  N29  N3-  0.649  0.848  0.899  1.000
  N29  N3-  0.849  0.048  0.099  1.000
  N29  N3-  0.849  0.048  0.299  1.000
  N29  N3-  0.849  0.048  0.499  1.000
  N29  N3-  0.849  0.048  0.699  1.000
  N29  N3-  0.849  0.048  0.899  1.000
  N29  N3-  0.849  0.248  0.099  1.000
  N29  N3-  0.849  0.248  0.299  1.000
  N29  N3-  0.849  0.248  0.499  1.000
  N29  N3-  0.849  0.248  0.699  1.000
  N29  N3-  0.849  0.248  0.899  1.000
  N29  N3-  0.849  0.448  0.099  1.000
  N29  N3-  0.849  0.448  0.299  1.000
  N29  N3-  0.849  0.448  0.499  1.000
  N29  N3-  0.849  0.448  0.699  1.000
  N29  N3-  0.849  0.448  0.899  1.000
  N29  N3-  0.849  0.648  0.099  1.000
  N29  N3-  0.849  0.648  0.299  1.000
  N29  N3-  0.849  0.648  0.499  1.000
  N29  N3-  0.849  0.648  0.699  1.000
  N29  N3-  0.849  0.648  0.899  1.000
  N29  N3-  0.849  0.848  0.099  1.000
  N29  N3-  0.849  0.848  0.299  1.000
  N29  N3-  0.849  0.848  0.499  1.000
  N29  N3-  0.849  0.848  0.699  1.000
  N29  N3-  0.849  0.848  0.899  1.000
  N30  N3-  0.158  0.152  0.007  1.000
  N30  N3-  0.158  0.152  0.207  1.000
  N30  N3-  0.158  0.152  0.407  1.000
  N30  N3-  0.158  0.152  0.607  1.000
  N30  N3-  0.158  0.152  0.807  1.000
  N30  N3-  0.158  0.352  0.007  1.000
  N30  N3-  0.158  0.352  0.207  1.000
  N30  N3-  0.158  0.352  0.407  1.000
  N30  N3-  0.158  0.352  0.607  1.000
  N30  N3-  0.158  0.352  0.807  1.000
  N30  N3-  0.158  0.552  0.007  1.000
  N30  N3-  0.158  0.552  0.207  1.000
  N30  N3-  0.158  0.552  0.407  1.000
  N30  N3-  0.158  0.552  0.607  1.000
  N30  N3-  0.158  0.552  0.807  1.000
  N30  N3-  0.158  0.752  0.007  1.000
  N30  N3-  0.158  0.752  0.207  1.000
  N30  N3-  0.158  0.752  0.407  1.000
  N30  N3-  0.158  0.752  0.607  1.000
  N30  N3-  0.158  0.752  0.807  1.000
  N30  N3-  0.158  0.952  0.007  1.000
  N30  N3-  0.158  0.952  0.207  1.000
  N30  N3-  0.158  0.952  0.407  1.000
  N30  N3-  0.158  0.952  0.607  1.000
  N30  N3-  0.158  0.952  0.807  1.000
  N30  N3-  0.358  0.152  0.007  1.000
  N30  N3-  0.358  0.152  0.207  1.000
  N30  N3-  0.358  0.152  0.407  1.000
  N30  N3-  0.358  0.152  0.607  1.000
  N30  N3-  0.358  0.152  0.807  1.000
  N30  N3-  0.358  0.352  0.007  1.000
  N30  N3-  0.358  0.352  0.207  1.000
  N30  N3-  0.358  0.352  0.407  1.000
  N30  N3-  0.358  0.352  0.607  1.000
  N30  N3-  0.358  0.352  0.807  1.000
  N30  N3-  0.358  0.552  0.007  1.000
  N30  N3-  0.358  0.552  0.207  1.000
  N30  N3-  0.358  0.552  0.407  1.000
  N30  N3-  0.358  0.552  0.607  1.000
  N30  N3-  0.358  0.552  0.807  1.000
  N30  N3-  0.358  0.752  0.007  1.000
  N30  N3-  0.358  0.752  0.207  1.000
  N30  N3-  0.358  0.752  0.407  1.000
  N30  N3-  0.358  0.752  0.607  1.000
  N30  N3-  0.358  0.752  0.807  1.000
  N30  N3-  0.358  0.952  0.007  1.000
  N30  N3-  0.358  0.952  0.207  1.000
  N30  N3-  0.358  0.952  0.407  1.000
  N30  N3-  0.358  0.952  0.607  1.000
  N30  N3-  0.358  0.952  0.807  1.000
  N30  N3-  0.558  0.152  0.007  1.000
  N30  N3-  0.558  0.152  0.207  1.000
  N30  N3-  0.558  0.152  0.407  1.000
  N30  N3-  0.558  0.152  0.607  1.000
  N30  N3-  0.558  0.152  0.807  1.000
  N30  N3-  0.558  0.352  0.007  1.000
  N30  N3-  0.558  0.352  0.207  1.000
  N30  N3-  0.558  0.352  0.407  1.000
  N30  N3-  0.558  0.352  0.607  1.000
  N30  N3-  0.558  0.352  0.807  1.000
  N30  N3-  0.558  0.552  0.007  1.000
  N30  N3-  0.558  0.552  0.207  1.000
  N30  N3-  0.558  0.552  0.407  1.000
  N30  N3-  0.558  0.552  0.607  1.000
  N30  N3-  0.558  0.552  0.807  1.000
  N30  N3-  0.558  0.752  0.007  1.000
  N30  N3-  0.558  0.752  0.207  1.000
  N30  N3-  0.558  0.752  0.407  1.000
  N30  N3-  0.558  0.752  0.607  1.000
  N30  N3-  0.558  0.752  0.807  1.000
  N30  N3-  0.558  0.952  0.007  1.000
  N30  N3-  0.558  0.952  0.207  1.000
  N30  N3-  0.558  0.952  0.407  1.000
  N30  N3-  0.558  0.952  0.607  1.000
  N30  N3-  0.558  0.952  0.807  1.000
  N30  N3-  0.758  0.152  0.007  1.000
  N30  N3-  0.758  0.152  0.207  1.000
  N30  N3-  0.758  0.152  0.407  1.000
  N30  N3-  0.758  0.152  0.607  1.000
  N30  N3-  0.758  0.152  0.807  1.000
  N30  N3-  0.758  0.352  0.007  1.000
  N30  N3-  0.758  0.352  0.207  1.000
  N30  N3-  0.758  0.352  0.407  1.000
  N30  N3-  0.758  0.352  0.607  1.000
  N30  N3-  0.758  0.352  0.807  1.000
  N30  N3-  0.758  0.552  0.007  1.000
  N30  N3-  0.758  0.552  0.207  1.000
  N30  N3-  0.758  0.552  0.407  1.000
  N30  N3-  0.758  0.552  0.607  1.000
  N30  N3-  0.758  0.552  0.807  1.000
  N30  N3-  0.758  0.752  0.007  1.000
  N30  N3-  0.758  0.752  0.207  1.000
  N30  N3-  0.758  0.752  0.407  1.000
  N30  N3-  0.758  0.752  0.607  1.000
  N30  N3-  0.758  0.752  0.807  1.000
  N30  N3-  0.758  0.952  0.007  1.000
  N30  N3-  0.758  0.952  0.207  1.000
  N30  N3-  0.758  0.952  0.407  1.000
  N30  N3-  0.758  0.952  0.607  1.000
  N30  N3-  0.758  0.952  0.807  1.000
  N30  N3-  0.958  0.152  0.007  1.000
  N30  N3-  0.958  0.152  0.207  1.000
  N30  N3-  0.958  0.152  0.407  1.000
  N30  N3-  0.958  0.152  0.607  1.000
  N30  N3-  0.958  0.152  0.807  1.000
  N30  N3-  0.958  0.352  0.007  1.000
  N30  N3-  0.958  0.352  0.207  1.000
  N30  N3-  0.958  0.352  0.407  1.000
  N30  N3-  0.958  0.352  0.607  1.000
  N30  N3-  0.958  0.352  0.807  1.000
  N30  N3-  0.958  0.552  0.007  1.000
  N30  N3-  0.958  0.552  0.207  1.000
  N30  N3-  0.958  0.552  0.407  1.000
  N30  N3-  0.958  0.552  0.607  1.000
  N30  N3-  0.958  0.552  0.807  1.000
  N30  N3-  0.958  0.752  0.007  1.000
  N30  N3-  0.958  0.752  0.207  1.000
  N30  N3-  0.958  0.752  0.407  1.000
  N30  N3-  0.958  0.752  0.607  1.000
  N30  N3-  0.958  0.752  0.807  1.000
  N30  N3-  0.958  0.952  0.007  1.000
  N30  N3-  0.958  0.952  0.207  1.000
  N30  N3-  0.958  0.952  0.407  1.000
  N30  N3-  0.958  0.952  0.607  1.000
  N30  N3-  0.958  0.952  0.807  1.000
  N31  N3-  0.046  0.152  0.094  1.000
  N31  N3-  0.046  0.152  0.294  1.000
  N31  N3-  0.046  0.152  0.494  1.000
  N31  N3-  0.046  0.152  0.694  1.000
  N31  N3-  0.046  0.152  0.894  1.000
  N31  N3-  0.046  0.352  0.094  1.000
  N31  N3-  0.046  0.352  0.294  1.000
  N31  N3-  0.046  0.352  0.494  1.000
  N31  N3-  0.046  0.352  0.694  1.000
  N31  N3-  0.046  0.352  0.894  1.000
  N31  N3-  0.046  0.552  0.094  1.000
  N31  N3-  0.046  0.552  0.294  1.000
  N31  N3-  0.046  0.552  0.494  1.000
  N31  N3-  0.046  0.552  0.694  1.000
  N31  N3-  0.046  0.552  0.894  1.000
  N31  N3-  0.046  0.752  0.094  1.000
  N31  N3-  0.046  0.752  0.294  1.000
  N31  N3-  0.046  0.752  0.494  1.000
  N31  N3-  0.046  0.752  0.694  1.000
  N31  N3-  0.046  0.752  0.894  1.000
  N31  N3-  0.046  0.952  0.094  1.000
  N31  N3-  0.046  0.952  0.294  1.000
  N31  N3-  0.046  0.952  0.494  1.000
  N31  N3-  0.046  0.952  0.694  1.000
  N31  N3-  0.046  0.952  0.894  1.000
  N31  N3-  0.246  0.152  0.094  1.000
  N31  N3-  0.246  0.152  0.294  1.000
  N31  N3-  0.246  0.152  0.494  1.000
  N31  N3-  0.246  0.152  0.694  1.000
  N31  N3-  0.246  0.152  0.894  1.000
  N31  N3-  0.246  0.352  0.094  1.000
  N31  N3-  0.246  0.352  0.294  1.000
  N31  N3-  0.246  0.352  0.494  1.000
  N31  N3-  0.246  0.352  0.694  1.000
  N31  N3-  0.246  0.352  0.894  1.000
  N31  N3-  0.246  0.552  0.094  1.000
  N31  N3-  0.246  0.552  0.294  1.000
  N31  N3-  0.246  0.552  0.494  1.000
  N31  N3-  0.246  0.552  0.694  1.000
  N31  N3-  0.246  0.552  0.894  1.000
  N31  N3-  0.246  0.752  0.094  1.000
  N31  N3-  0.246  0.752  0.294  1.000
  N31  N3-  0.246  0.752  0.494  1.000
  N31  N3-  0.246  0.752  0.694  1.000
  N31  N3-  0.246  0.752  0.894  1.000
  N31  N3-  0.246  0.952  0.094  1.000
  N31  N3-  0.246  0.952  0.294  1.000
  N31  N3-  0.246  0.952  0.494  1.000
  N31  N3-  0.246  0.952  0.694  1.000
  N31  N3-  0.246  0.952  0.894  1.000
  N31  N3-  0.446  0.152  0.094  1.000
  N31  N3-  0.446  0.152  0.294  1.000
  N31  N3-  0.446  0.152  0.494  1.000
  N31  N3-  0.446  0.152  0.694  1.000
  N31  N3-  0.446  0.152  0.894  1.000
  N31  N3-  0.446  0.352  0.094  1.000
  N31  N3-  0.446  0.352  0.294  1.000
  N31  N3-  0.446  0.352  0.494  1.000
  N31  N3-  0.446  0.352  0.694  1.000
  N31  N3-  0.446  0.352  0.894  1.000
  N31  N3-  0.446  0.552  0.094  1.000
  N31  N3-  0.446  0.552  0.294  1.000
  N31  N3-  0.446  0.552  0.494  1.000
  N31  N3-  0.446  0.552  0.694  1.000
  N31  N3-  0.446  0.552  0.894  1.000
  N31  N3-  0.446  0.752  0.094  1.000
  N31  N3-  0.446  0.752  0.294  1.000
  N31  N3-  0.446  0.752  0.494  1.000
  N31  N3-  0.446  0.752  0.694  1.000
  N31  N3-  0.446  0.752  0.894  1.000
  N31  N3-  0.446  0.952  0.094  1.000
  N31  N3-  0.446  0.952  0.294  1.000
  N31  N3-  0.446  0.952  0.494  1.000
  N31  N3-  0.446  0.952  0.694  1.000
  N31  N3-  0.446  0.952  0.894  1.000
  N31  N3-  0.646  0.152  0.094  1.000
  N31  N3-  0.646  0.152  0.294  1.000
  N31  N3-  0.646  0.152  0.494  1.000
  N31  N3-  0.646  0.152  0.694  1.000
  N31  N3-  0.646  0.152  0.894  1.000
  N31  N3-  0.646  0.352  0.094  1.000
  N31  N3-  0.646  0.352  0.294  1.000
  N31  N3-  0.646  0.352  0.494  1.000
  N31  N3-  0.646  0.352  0.694  1.000
  N31  N3-  0.646  0.352  0.894  1.000
  N31  N3-  0.646  0.552  0.094  1.000
  N31  N3-  0.646  0.552  0.294  1.000
  N31  N3-  0.646  0.552  0.494  1.000
  N31  N3-  0.646  0.552  0.694  1.000
  N31  N3-  0.646  0.552  0.894  1.000
  N31  N3-  0.646  0.752  0.094  1.000
  N31  N3-  0.646  0.752  0.294  1.000
  N31  N3-  0.646  0.752  0.494  1.000
  N31  N3-  0.646  0.752  0.694  1.000
  N31  N3-  0.646  0.752  0.894  1.000
  N31  N3-  0.646  0.952  0.094  1.000
  N31  N3-  0.646  0.952  0.294  1.000
  N31  N3-  0.646  0.952  0.494  1.000
  N31  N3-  0.646  0.952  0.694  1.000
  N31  N3-  0.646  0.952  0.894  1.000
  N31  N3-  0.846  0.152  0.094  1.000
  N31  N3-  0.846  0.152  0.294  1.000
  N31  N3-  0.846  0.152  0.494  1.000
  N31  N3-  0.846  0.152  0.694  1.000
  N31  N3-  0.846  0.152  0.894  1.000
  N31  N3-  0.846  0.352  0.094  1.000
  N31  N3-  0.846  0.352  0.294  1.000
  N31  N3-  0.846  0.352  0.494  1.000
  N31  N3-  0.846  0.352  0.694  1.000
  N31  N3-  0.846  0.352  0.894  1.000
  N31  N3-  0.846  0.552  0.094  1.000
  N31  N3-  0.846  0.552  0.294  1.000
  N31  N3-  0.846  0.552  0.494  1.000
  N31  N3-  0.846  0.552  0.694  1.000
  N31  N3-  0.846  0.552  0.894  1.000
  N31  N3-  0.846  0.752  0.094  1.000
  N31  N3-  0.846  0.752  0.294  1.000
  N31  N3-  0.846  0.752  0.494  1.000
  N31  N3-  0.846  0.752  0.694  1.000
  N31  N3-  0.846  0.752  0.894  1.000
  N31  N3-  0.846  0.952  0.094  1.000
  N31  N3-  0.846  0.952  0.294  1.000
  N31  N3-  0.846  0.952  0.494  1.000
  N31  N3-  0.846  0.952  0.694  1.000
  N31  N3-  0.846  0.952  0.894  1.000

#end of data
