data_generated-by-softBV

_chemical_name_systematic         ''
_cell_length_a                    21.304
_cell_length_b                    21.304
_cell_length_c                    21.304
_cell_angle_alpha                 60.000
_cell_angle_beta                  60.000
_cell_angle_gamma                 60.000
_cell_volume                      6837.101
_cell_formula_units_Z             0
_symmetry_space_group_name_H-M    'P 1'
_symmetry_Int_Tables_number       1

loop_
  _symmetry_equiv_pos_site_id
  _symmetry_equiv_pos_as_xyz
    1    'x, y, z'

loop_
  _atom_type_symbol
  _atom_type_oxidation_number
  Li1+     1

loop_
  _atom_site_label
  _atom_site_type_symbol
  _atom_site_fract_x
  _atom_site_fract_y
  _atom_site_fract_z
  _atom_site_occupancy
  Li_i1  Li1+  0.033  0.033  0.100  0.001
  Li_i1  Li1+  0.033  0.100  0.033  0.001
  Li_i1  Li1+  0.100  0.033  0.033  0.001
  Li_i1  Li1+  0.100  0.167  0.167  0.001
  Li_i1  Li1+  0.167  0.100  0.167  0.001
  Li_i1  Li1+  0.167  0.167  0.100  0.001
  Li_i1  Li1+  0.033  0.033  0.300  0.001
  Li_i1  Li1+  0.033  0.100  0.233  0.001
  Li_i1  Li1+  0.100  0.033  0.233  0.001
  Li_i1  Li1+  0.100  0.167  0.367  0.001
  Li_i1  Li1+  0.167  0.100  0.367  0.001
  Li_i1  Li1+  0.167  0.167  0.300  0.001
  Li_i1  Li1+  0.033  0.033  0.500  0.001
  Li_i1  Li1+  0.033  0.100  0.433  0.001
  Li_i1  Li1+  0.100  0.033  0.433  0.001
  Li_i1  Li1+  0.100  0.167  0.567  0.001
  Li_i1  Li1+  0.167  0.100  0.567  0.001
  Li_i1  Li1+  0.167  0.167  0.500  0.001
  Li_i1  Li1+  0.033  0.033  0.700  0.001
  Li_i1  Li1+  0.033  0.100  0.633  0.001
  Li_i1  Li1+  0.100  0.033  0.633  0.001
  Li_i1  Li1+  0.100  0.167  0.767  0.001
  Li_i1  Li1+  0.167  0.100  0.767  0.001
  Li_i1  Li1+  0.167  0.167  0.700  0.001
  Li_i1  Li1+  0.033  0.033  0.900  0.001
  Li_i1  Li1+  0.033  0.100  0.833  0.001
  Li_i1  Li1+  0.100  0.033  0.833  0.001
  Li_i1  Li1+  0.100  0.167  0.967  0.001
  Li_i1  Li1+  0.167  0.100  0.967  0.001
  Li_i1  Li1+  0.167  0.167  0.900  0.001
  Li_i1  Li1+  0.033  0.233  0.100  0.001
  Li_i1  Li1+  0.033  0.300  0.033  0.001
  Li_i1  Li1+  0.100  0.233  0.033  0.001
  Li_i1  Li1+  0.100  0.367  0.167  0.001
  Li_i1  Li1+  0.167  0.300  0.167  0.001
  Li_i1  Li1+  0.167  0.367  0.100  0.001
  Li_i1  Li1+  0.033  0.233  0.300  0.001
  Li_i1  Li1+  0.033  0.300  0.233  0.001
  Li_i1  Li1+  0.100  0.233  0.233  0.001
  Li_i1  Li1+  0.100  0.367  0.367  0.001
  Li_i1  Li1+  0.167  0.300  0.367  0.001
  Li_i1  Li1+  0.167  0.367  0.300  0.001
  Li_i1  Li1+  0.033  0.233  0.500  0.001
  Li_i1  Li1+  0.033  0.300  0.433  0.001
  Li_i1  Li1+  0.100  0.233  0.433  0.001
  Li_i1  Li1+  0.100  0.367  0.567  0.001
  Li_i1  Li1+  0.167  0.300  0.567  0.001
  Li_i1  Li1+  0.167  0.367  0.500  0.001
  Li_i1  Li1+  0.033  0.233  0.700  0.001
  Li_i1  Li1+  0.033  0.300  0.633  0.001
  Li_i1  Li1+  0.100  0.233  0.633  0.001
  Li_i1  Li1+  0.100  0.367  0.767  0.001
  Li_i1  Li1+  0.167  0.300  0.767  0.001
  Li_i1  Li1+  0.167  0.367  0.700  0.001
  Li_i1  Li1+  0.033  0.233  0.900  0.001
  Li_i1  Li1+  0.033  0.300  0.833  0.001
  Li_i1  Li1+  0.100  0.233  0.833  0.001
  Li_i1  Li1+  0.100  0.367  0.967  0.001
  Li_i1  Li1+  0.167  0.300  0.967  0.001
  Li_i1  Li1+  0.167  0.367  0.900  0.001
  Li_i1  Li1+  0.033  0.433  0.100  0.001
  Li_i1  Li1+  0.033  0.500  0.033  0.001
  Li_i1  Li1+  0.100  0.433  0.033  0.001
  Li_i1  Li1+  0.100  0.567  0.167  0.001
  Li_i1  Li1+  0.167  0.500  0.167  0.001
  Li_i1  Li1+  0.167  0.567  0.100  0.001
  Li_i1  Li1+  0.033  0.433  0.300  0.001
  Li_i1  Li1+  0.033  0.500  0.233  0.001
  Li_i1  Li1+  0.100  0.433  0.233  0.001
  Li_i1  Li1+  0.100  0.567  0.367  0.001
  Li_i1  Li1+  0.167  0.500  0.367  0.001
  Li_i1  Li1+  0.167  0.567  0.300  0.001
  Li_i1  Li1+  0.033  0.433  0.500  0.001
  Li_i1  Li1+  0.033  0.500  0.433  0.001
  Li_i1  Li1+  0.100  0.433  0.433  0.001
  Li_i1  Li1+  0.100  0.567  0.567  0.001
  Li_i1  Li1+  0.167  0.500  0.567  0.001
  Li_i1  Li1+  0.167  0.567  0.500  0.001
  Li_i1  Li1+  0.033  0.433  0.700  0.001
  Li_i1  Li1+  0.033  0.500  0.633  0.001
  Li_i1  Li1+  0.100  0.433  0.633  0.001
  Li_i1  Li1+  0.100  0.567  0.767  0.001
  Li_i1  Li1+  0.167  0.500  0.767  0.001
  Li_i1  Li1+  0.167  0.567  0.700  0.001
  Li_i1  Li1+  0.033  0.433  0.900  0.001
  Li_i1  Li1+  0.033  0.500  0.833  0.001
  Li_i1  Li1+  0.100  0.433  0.833  0.001
  Li_i1  Li1+  0.100  0.567  0.967  0.001
  Li_i1  Li1+  0.167  0.500  0.967  0.001
  Li_i1  Li1+  0.167  0.567  0.900  0.001
  Li_i1  Li1+  0.033  0.633  0.100  0.001
  Li_i1  Li1+  0.033  0.700  0.033  0.001
  Li_i1  Li1+  0.100  0.633  0.033  0.001
  Li_i1  Li1+  0.100  0.767  0.167  0.001
  Li_i1  Li1+  0.167  0.700  0.167  0.001
  Li_i1  Li1+  0.167  0.767  0.100  0.001
  Li_i1  Li1+  0.033  0.633  0.300  0.001
  Li_i1  Li1+  0.033  0.700  0.233  0.001
  Li_i1  Li1+  0.100  0.633  0.233  0.001
  Li_i1  Li1+  0.100  0.767  0.367  0.001
  Li_i1  Li1+  0.167  0.700  0.367  0.001
  Li_i1  Li1+  0.167  0.767  0.300  0.001
  Li_i1  Li1+  0.033  0.633  0.500  0.001
  Li_i1  Li1+  0.033  0.700  0.433  0.001
  Li_i1  Li1+  0.100  0.633  0.433  0.001
  Li_i1  Li1+  0.100  0.767  0.567  0.001
  Li_i1  Li1+  0.167  0.700  0.567  0.001
  Li_i1  Li1+  0.167  0.767  0.500  0.001
  Li_i1  Li1+  0.033  0.633  0.700  0.001
  Li_i1  Li1+  0.033  0.700  0.633  0.001
  Li_i1  Li1+  0.100  0.633  0.633  0.001
  Li_i1  Li1+  0.100  0.767  0.767  0.001
  Li_i1  Li1+  0.167  0.700  0.767  0.001
  Li_i1  Li1+  0.167  0.767  0.700  0.001
  Li_i1  Li1+  0.033  0.633  0.900  0.001
  Li_i1  Li1+  0.033  0.700  0.833  0.001
  Li_i1  Li1+  0.100  0.633  0.833  0.001
  Li_i1  Li1+  0.100  0.767  0.967  0.001
  Li_i1  Li1+  0.167  0.700  0.967  0.001
  Li_i1  Li1+  0.167  0.767  0.900  0.001
  Li_i1  Li1+  0.033  0.833  0.100  0.001
  Li_i1  Li1+  0.033  0.900  0.033  0.001
  Li_i1  Li1+  0.100  0.833  0.033  0.001
  Li_i1  Li1+  0.100  0.967  0.167  0.001
  Li_i1  Li1+  0.167  0.900  0.167  0.001
  Li_i1  Li1+  0.167  0.967  0.100  0.001
  Li_i1  Li1+  0.033  0.833  0.300  0.001
  Li_i1  Li1+  0.033  0.900  0.233  0.001
  Li_i1  Li1+  0.100  0.833  0.233  0.001
  Li_i1  Li1+  0.100  0.967  0.367  0.001
  Li_i1  Li1+  0.167  0.900  0.367  0.001
  Li_i1  Li1+  0.167  0.967  0.300  0.001
  Li_i1  Li1+  0.033  0.833  0.500  0.001
  Li_i1  Li1+  0.033  0.900  0.433  0.001
  Li_i1  Li1+  0.100  0.833  0.433  0.001
  Li_i1  Li1+  0.100  0.967  0.567  0.001
  Li_i1  Li1+  0.167  0.900  0.567  0.001
  Li_i1  Li1+  0.167  0.967  0.500  0.001
  Li_i1  Li1+  0.033  0.833  0.700  0.001
  Li_i1  Li1+  0.033  0.900  0.633  0.001
  Li_i1  Li1+  0.100  0.833  0.633  0.001
  Li_i1  Li1+  0.100  0.967  0.767  0.001
  Li_i1  Li1+  0.167  0.900  0.767  0.001
  Li_i1  Li1+  0.167  0.967  0.700  0.001
  Li_i1  Li1+  0.033  0.833  0.900  0.001
  Li_i1  Li1+  0.033  0.900  0.833  0.001
  Li_i1  Li1+  0.100  0.833  0.833  0.001
  Li_i1  Li1+  0.100  0.967  0.967  0.001
  Li_i1  Li1+  0.167  0.900  0.967  0.001
  Li_i1  Li1+  0.167  0.967  0.900  0.001
  Li_i1  Li1+  0.233  0.033  0.100  0.001
  Li_i1  Li1+  0.233  0.100  0.033  0.001
  Li_i1  Li1+  0.300  0.033  0.033  0.001
  Li_i1  Li1+  0.300  0.167  0.167  0.001
  Li_i1  Li1+  0.367  0.100  0.167  0.001
  Li_i1  Li1+  0.367  0.167  0.100  0.001
  Li_i1  Li1+  0.233  0.033  0.300  0.001
  Li_i1  Li1+  0.233  0.100  0.233  0.001
  Li_i1  Li1+  0.300  0.033  0.233  0.001
  Li_i1  Li1+  0.300  0.167  0.367  0.001
  Li_i1  Li1+  0.367  0.100  0.367  0.001
  Li_i1  Li1+  0.367  0.167  0.300  0.001
  Li_i1  Li1+  0.233  0.033  0.500  0.001
  Li_i1  Li1+  0.233  0.100  0.433  0.001
  Li_i1  Li1+  0.300  0.033  0.433  0.001
  Li_i1  Li1+  0.300  0.167  0.567  0.001
  Li_i1  Li1+  0.367  0.100  0.567  0.001
  Li_i1  Li1+  0.367  0.167  0.500  0.001
  Li_i1  Li1+  0.233  0.033  0.700  0.001
  Li_i1  Li1+  0.233  0.100  0.633  0.001
  Li_i1  Li1+  0.300  0.033  0.633  0.001
  Li_i1  Li1+  0.300  0.167  0.767  0.001
  Li_i1  Li1+  0.367  0.100  0.767  0.001
  Li_i1  Li1+  0.367  0.167  0.700  0.001
  Li_i1  Li1+  0.233  0.033  0.900  0.001
  Li_i1  Li1+  0.233  0.100  0.833  0.001
  Li_i1  Li1+  0.300  0.033  0.833  0.001
  Li_i1  Li1+  0.300  0.167  0.967  0.001
  Li_i1  Li1+  0.367  0.100  0.967  0.001
  Li_i1  Li1+  0.367  0.167  0.900  0.001
  Li_i1  Li1+  0.233  0.233  0.100  0.001
  Li_i1  Li1+  0.233  0.300  0.033  0.001
  Li_i1  Li1+  0.300  0.233  0.033  0.001
  Li_i1  Li1+  0.300  0.367  0.167  0.001
  Li_i1  Li1+  0.367  0.300  0.167  0.001
  Li_i1  Li1+  0.367  0.367  0.100  0.001
  Li_i1  Li1+  0.233  0.233  0.300  0.001
  Li_i1  Li1+  0.233  0.300  0.233  0.001
  Li_i1  Li1+  0.300  0.233  0.233  0.001
  Li_i1  Li1+  0.300  0.367  0.367  0.001
  Li_i1  Li1+  0.367  0.300  0.367  0.001
  Li_i1  Li1+  0.367  0.367  0.300  0.001
  Li_i1  Li1+  0.233  0.233  0.500  0.001
  Li_i1  Li1+  0.233  0.300  0.433  0.001
  Li_i1  Li1+  0.300  0.233  0.433  0.001
  Li_i1  Li1+  0.300  0.367  0.567  0.001
  Li_i1  Li1+  0.367  0.300  0.567  0.001
  Li_i1  Li1+  0.367  0.367  0.500  0.001
  Li_i1  Li1+  0.233  0.233  0.700  0.001
  Li_i1  Li1+  0.233  0.300  0.633  0.001
  Li_i1  Li1+  0.300  0.233  0.633  0.001
  Li_i1  Li1+  0.300  0.367  0.767  0.001
  Li_i1  Li1+  0.367  0.300  0.767  0.001
  Li_i1  Li1+  0.367  0.367  0.700  0.001
  Li_i1  Li1+  0.233  0.233  0.900  0.001
  Li_i1  Li1+  0.233  0.300  0.833  0.001
  Li_i1  Li1+  0.300  0.233  0.833  0.001
  Li_i1  Li1+  0.300  0.367  0.967  0.001
  Li_i1  Li1+  0.367  0.300  0.967  0.001
  Li_i1  Li1+  0.367  0.367  0.900  0.001
  Li_i1  Li1+  0.233  0.433  0.100  0.001
  Li_i1  Li1+  0.233  0.500  0.033  0.001
  Li_i1  Li1+  0.300  0.433  0.033  0.001
  Li_i1  Li1+  0.300  0.567  0.167  0.001
  Li_i1  Li1+  0.367  0.500  0.167  0.001
  Li_i1  Li1+  0.367  0.567  0.100  0.001
  Li_i1  Li1+  0.233  0.433  0.300  0.001
  Li_i1  Li1+  0.233  0.500  0.233  0.001
  Li_i1  Li1+  0.300  0.433  0.233  0.001
  Li_i1  Li1+  0.300  0.567  0.367  0.001
  Li_i1  Li1+  0.367  0.500  0.367  0.001
  Li_i1  Li1+  0.367  0.567  0.300  0.001
  Li_i1  Li1+  0.233  0.433  0.500  0.001
  Li_i1  Li1+  0.233  0.500  0.433  0.001
  Li_i1  Li1+  0.300  0.433  0.433  0.001
  Li_i1  Li1+  0.300  0.567  0.567  0.001
  Li_i1  Li1+  0.367  0.500  0.567  0.001
  Li_i1  Li1+  0.367  0.567  0.500  0.001
  Li_i1  Li1+  0.233  0.433  0.700  0.001
  Li_i1  Li1+  0.233  0.500  0.633  0.001
  Li_i1  Li1+  0.300  0.433  0.633  0.001
  Li_i1  Li1+  0.300  0.567  0.767  0.001
  Li_i1  Li1+  0.367  0.500  0.767  0.001
  Li_i1  Li1+  0.367  0.567  0.700  0.001
  Li_i1  Li1+  0.233  0.433  0.900  0.001
  Li_i1  Li1+  0.233  0.500  0.833  0.001
  Li_i1  Li1+  0.300  0.433  0.833  0.001
  Li_i1  Li1+  0.300  0.567  0.967  0.001
  Li_i1  Li1+  0.367  0.500  0.967  0.001
  Li_i1  Li1+  0.367  0.567  0.900  0.001
  Li_i1  Li1+  0.233  0.633  0.100  0.001
  Li_i1  Li1+  0.233  0.700  0.033  0.001
  Li_i1  Li1+  0.300  0.633  0.033  0.001
  Li_i1  Li1+  0.300  0.767  0.167  0.001
  Li_i1  Li1+  0.367  0.700  0.167  0.001
  Li_i1  Li1+  0.367  0.767  0.100  0.001
  Li_i1  Li1+  0.233  0.633  0.300  0.001
  Li_i1  Li1+  0.233  0.700  0.233  0.001
  Li_i1  Li1+  0.300  0.633  0.233  0.001
  Li_i1  Li1+  0.300  0.767  0.367  0.001
  Li_i1  Li1+  0.367  0.700  0.367  0.001
  Li_i1  Li1+  0.367  0.767  0.300  0.001
  Li_i1  Li1+  0.233  0.633  0.500  0.001
  Li_i1  Li1+  0.233  0.700  0.433  0.001
  Li_i1  Li1+  0.300  0.633  0.433  0.001
  Li_i1  Li1+  0.300  0.767  0.567  0.001
  Li_i1  Li1+  0.367  0.700  0.567  0.001
  Li_i1  Li1+  0.367  0.767  0.500  0.001
  Li_i1  Li1+  0.233  0.633  0.700  0.001
  Li_i1  Li1+  0.233  0.700  0.633  0.001
  Li_i1  Li1+  0.300  0.633  0.633  0.001
  Li_i1  Li1+  0.300  0.767  0.767  0.001
  Li_i1  Li1+  0.367  0.700  0.767  0.001
  Li_i1  Li1+  0.367  0.767  0.700  0.001
  Li_i1  Li1+  0.233  0.633  0.900  0.001
  Li_i1  Li1+  0.233  0.700  0.833  0.001
  Li_i1  Li1+  0.300  0.633  0.833  0.001
  Li_i1  Li1+  0.300  0.767  0.967  0.001
  Li_i1  Li1+  0.367  0.700  0.967  0.001
  Li_i1  Li1+  0.367  0.767  0.900  0.001
  Li_i1  Li1+  0.233  0.833  0.100  0.001
  Li_i1  Li1+  0.233  0.900  0.033  0.001
  Li_i1  Li1+  0.300  0.833  0.033  0.001
  Li_i1  Li1+  0.300  0.967  0.167  0.001
  Li_i1  Li1+  0.367  0.900  0.167  0.001
  Li_i1  Li1+  0.367  0.967  0.100  0.001
  Li_i1  Li1+  0.233  0.833  0.300  0.001
  Li_i1  Li1+  0.233  0.900  0.233  0.001
  Li_i1  Li1+  0.300  0.833  0.233  0.001
  Li_i1  Li1+  0.300  0.967  0.367  0.001
  Li_i1  Li1+  0.367  0.900  0.367  0.001
  Li_i1  Li1+  0.367  0.967  0.300  0.001
  Li_i1  Li1+  0.233  0.833  0.500  0.001
  Li_i1  Li1+  0.233  0.900  0.433  0.001
  Li_i1  Li1+  0.300  0.833  0.433  0.001
  Li_i1  Li1+  0.300  0.967  0.567  0.001
  Li_i1  Li1+  0.367  0.900  0.567  0.001
  Li_i1  Li1+  0.367  0.967  0.500  0.001
  Li_i1  Li1+  0.233  0.833  0.700  0.001
  Li_i1  Li1+  0.233  0.900  0.633  0.001
  Li_i1  Li1+  0.300  0.833  0.633  0.001
  Li_i1  Li1+  0.300  0.967  0.767  0.001
  Li_i1  Li1+  0.367  0.900  0.767  0.001
  Li_i1  Li1+  0.367  0.967  0.700  0.001
  Li_i1  Li1+  0.233  0.833  0.900  0.001
  Li_i1  Li1+  0.233  0.900  0.833  0.001
  Li_i1  Li1+  0.300  0.833  0.833  0.001
  Li_i1  Li1+  0.300  0.967  0.967  0.001
  Li_i1  Li1+  0.367  0.900  0.967  0.001
  Li_i1  Li1+  0.367  0.967  0.900  0.001
  Li_i1  Li1+  0.433  0.033  0.100  0.001
  Li_i1  Li1+  0.433  0.100  0.033  0.001
  Li_i1  Li1+  0.500  0.033  0.033  0.001
  Li_i1  Li1+  0.500  0.167  0.167  0.001
  Li_i1  Li1+  0.567  0.100  0.167  0.001
  Li_i1  Li1+  0.567  0.167  0.100  0.001
  Li_i1  Li1+  0.433  0.033  0.300  0.001
  Li_i1  Li1+  0.433  0.100  0.233  0.001
  Li_i1  Li1+  0.500  0.033  0.233  0.001
  Li_i1  Li1+  0.500  0.167  0.367  0.001
  Li_i1  Li1+  0.567  0.100  0.367  0.001
  Li_i1  Li1+  0.567  0.167  0.300  0.001
  Li_i1  Li1+  0.433  0.033  0.500  0.001
  Li_i1  Li1+  0.433  0.100  0.433  0.001
  Li_i1  Li1+  0.500  0.033  0.433  0.001
  Li_i1  Li1+  0.500  0.167  0.567  0.001
  Li_i1  Li1+  0.567  0.100  0.567  0.001
  Li_i1  Li1+  0.567  0.167  0.500  0.001
  Li_i1  Li1+  0.433  0.033  0.700  0.001
  Li_i1  Li1+  0.433  0.100  0.633  0.001
  Li_i1  Li1+  0.500  0.033  0.633  0.001
  Li_i1  Li1+  0.500  0.167  0.767  0.001
  Li_i1  Li1+  0.567  0.100  0.767  0.001
  Li_i1  Li1+  0.567  0.167  0.700  0.001
  Li_i1  Li1+  0.433  0.033  0.900  0.001
  Li_i1  Li1+  0.433  0.100  0.833  0.001
  Li_i1  Li1+  0.500  0.033  0.833  0.001
  Li_i1  Li1+  0.500  0.167  0.967  0.001
  Li_i1  Li1+  0.567  0.100  0.967  0.001
  Li_i1  Li1+  0.567  0.167  0.900  0.001
  Li_i1  Li1+  0.433  0.233  0.100  0.001
  Li_i1  Li1+  0.433  0.300  0.033  0.001
  Li_i1  Li1+  0.500  0.233  0.033  0.001
  Li_i1  Li1+  0.500  0.367  0.167  0.001
  Li_i1  Li1+  0.567  0.300  0.167  0.001
  Li_i1  Li1+  0.567  0.367  0.100  0.001
  Li_i1  Li1+  0.433  0.233  0.300  0.001
  Li_i1  Li1+  0.433  0.300  0.233  0.001
  Li_i1  Li1+  0.500  0.233  0.233  0.001
  Li_i1  Li1+  0.500  0.367  0.367  0.001
  Li_i1  Li1+  0.567  0.300  0.367  0.001
  Li_i1  Li1+  0.567  0.367  0.300  0.001
  Li_i1  Li1+  0.433  0.233  0.500  0.001
  Li_i1  Li1+  0.433  0.300  0.433  0.001
  Li_i1  Li1+  0.500  0.233  0.433  0.001
  Li_i1  Li1+  0.500  0.367  0.567  0.001
  Li_i1  Li1+  0.567  0.300  0.567  0.001
  Li_i1  Li1+  0.567  0.367  0.500  0.001
  Li_i1  Li1+  0.433  0.233  0.700  0.001
  Li_i1  Li1+  0.433  0.300  0.633  0.001
  Li_i1  Li1+  0.500  0.233  0.633  0.001
  Li_i1  Li1+  0.500  0.367  0.767  0.001
  Li_i1  Li1+  0.567  0.300  0.767  0.001
  Li_i1  Li1+  0.567  0.367  0.700  0.001
  Li_i1  Li1+  0.433  0.233  0.900  0.001
  Li_i1  Li1+  0.433  0.300  0.833  0.001
  Li_i1  Li1+  0.500  0.233  0.833  0.001
  Li_i1  Li1+  0.500  0.367  0.967  0.001
  Li_i1  Li1+  0.567  0.300  0.967  0.001
  Li_i1  Li1+  0.567  0.367  0.900  0.001
  Li_i1  Li1+  0.433  0.433  0.100  0.001
  Li_i1  Li1+  0.433  0.500  0.033  0.001
  Li_i1  Li1+  0.500  0.433  0.033  0.001
  Li_i1  Li1+  0.500  0.567  0.167  0.001
  Li_i1  Li1+  0.567  0.500  0.167  0.001
  Li_i1  Li1+  0.567  0.567  0.100  0.001
  Li_i1  Li1+  0.433  0.433  0.300  0.001
  Li_i1  Li1+  0.433  0.500  0.233  0.001
  Li_i1  Li1+  0.500  0.433  0.233  0.001
  Li_i1  Li1+  0.500  0.567  0.367  0.001
  Li_i1  Li1+  0.567  0.500  0.367  0.001
  Li_i1  Li1+  0.567  0.567  0.300  0.001
  Li_i1  Li1+  0.433  0.433  0.500  0.001
  Li_i1  Li1+  0.433  0.500  0.433  0.001
  Li_i1  Li1+  0.500  0.433  0.433  0.001
  Li_i1  Li1+  0.500  0.567  0.567  0.001
  Li_i1  Li1+  0.567  0.500  0.567  0.001
  Li_i1  Li1+  0.567  0.567  0.500  0.001
  Li_i1  Li1+  0.433  0.433  0.700  0.001
  Li_i1  Li1+  0.433  0.500  0.633  0.001
  Li_i1  Li1+  0.500  0.433  0.633  0.001
  Li_i1  Li1+  0.500  0.567  0.767  0.001
  Li_i1  Li1+  0.567  0.500  0.767  0.001
  Li_i1  Li1+  0.567  0.567  0.700  0.001
  Li_i1  Li1+  0.433  0.433  0.900  0.001
  Li_i1  Li1+  0.433  0.500  0.833  0.001
  Li_i1  Li1+  0.500  0.433  0.833  0.001
  Li_i1  Li1+  0.500  0.567  0.967  0.001
  Li_i1  Li1+  0.567  0.500  0.967  0.001
  Li_i1  Li1+  0.567  0.567  0.900  0.001
  Li_i1  Li1+  0.433  0.633  0.100  0.001
  Li_i1  Li1+  0.433  0.700  0.033  0.001
  Li_i1  Li1+  0.500  0.633  0.033  0.001
  Li_i1  Li1+  0.500  0.767  0.167  0.001
  Li_i1  Li1+  0.567  0.700  0.167  0.001
  Li_i1  Li1+  0.567  0.767  0.100  0.001
  Li_i1  Li1+  0.433  0.633  0.300  0.001
  Li_i1  Li1+  0.433  0.700  0.233  0.001
  Li_i1  Li1+  0.500  0.633  0.233  0.001
  Li_i1  Li1+  0.500  0.767  0.367  0.001
  Li_i1  Li1+  0.567  0.700  0.367  0.001
  Li_i1  Li1+  0.567  0.767  0.300  0.001
  Li_i1  Li1+  0.433  0.633  0.500  0.001
  Li_i1  Li1+  0.433  0.700  0.433  0.001
  Li_i1  Li1+  0.500  0.633  0.433  0.001
  Li_i1  Li1+  0.500  0.767  0.567  0.001
  Li_i1  Li1+  0.567  0.700  0.567  0.001
  Li_i1  Li1+  0.567  0.767  0.500  0.001
  Li_i1  Li1+  0.433  0.633  0.700  0.001
  Li_i1  Li1+  0.433  0.700  0.633  0.001
  Li_i1  Li1+  0.500  0.633  0.633  0.001
  Li_i1  Li1+  0.500  0.767  0.767  0.001
  Li_i1  Li1+  0.567  0.700  0.767  0.001
  Li_i1  Li1+  0.567  0.767  0.700  0.001
  Li_i1  Li1+  0.433  0.633  0.900  0.001
  Li_i1  Li1+  0.433  0.700  0.833  0.001
  Li_i1  Li1+  0.500  0.633  0.833  0.001
  Li_i1  Li1+  0.500  0.767  0.967  0.001
  Li_i1  Li1+  0.567  0.700  0.967  0.001
  Li_i1  Li1+  0.567  0.767  0.900  0.001
  Li_i1  Li1+  0.433  0.833  0.100  0.001
  Li_i1  Li1+  0.433  0.900  0.033  0.001
  Li_i1  Li1+  0.500  0.833  0.033  0.001
  Li_i1  Li1+  0.500  0.967  0.167  0.001
  Li_i1  Li1+  0.567  0.900  0.167  0.001
  Li_i1  Li1+  0.567  0.967  0.100  0.001
  Li_i1  Li1+  0.433  0.833  0.300  0.001
  Li_i1  Li1+  0.433  0.900  0.233  0.001
  Li_i1  Li1+  0.500  0.833  0.233  0.001
  Li_i1  Li1+  0.500  0.967  0.367  0.001
  Li_i1  Li1+  0.567  0.900  0.367  0.001
  Li_i1  Li1+  0.567  0.967  0.300  0.001
  Li_i1  Li1+  0.433  0.833  0.500  0.001
  Li_i1  Li1+  0.433  0.900  0.433  0.001
  Li_i1  Li1+  0.500  0.833  0.433  0.001
  Li_i1  Li1+  0.500  0.967  0.567  0.001
  Li_i1  Li1+  0.567  0.900  0.567  0.001
  Li_i1  Li1+  0.567  0.967  0.500  0.001
  Li_i1  Li1+  0.433  0.833  0.700  0.001
  Li_i1  Li1+  0.433  0.900  0.633  0.001
  Li_i1  Li1+  0.500  0.833  0.633  0.001
  Li_i1  Li1+  0.500  0.967  0.767  0.001
  Li_i1  Li1+  0.567  0.900  0.767  0.001
  Li_i1  Li1+  0.567  0.967  0.700  0.001
  Li_i1  Li1+  0.433  0.833  0.900  0.001
  Li_i1  Li1+  0.433  0.900  0.833  0.001
  Li_i1  Li1+  0.500  0.833  0.833  0.001
  Li_i1  Li1+  0.500  0.967  0.967  0.001
  Li_i1  Li1+  0.567  0.900  0.967  0.001
  Li_i1  Li1+  0.567  0.967  0.900  0.001
  Li_i1  Li1+  0.633  0.033  0.100  0.001
  Li_i1  Li1+  0.633  0.100  0.033  0.001
  Li_i1  Li1+  0.700  0.033  0.033  0.001
  Li_i1  Li1+  0.700  0.167  0.167  0.001
  Li_i1  Li1+  0.767  0.100  0.167  0.001
  Li_i1  Li1+  0.767  0.167  0.100  0.001
  Li_i1  Li1+  0.633  0.033  0.300  0.001
  Li_i1  Li1+  0.633  0.100  0.233  0.001
  Li_i1  Li1+  0.700  0.033  0.233  0.001
  Li_i1  Li1+  0.700  0.167  0.367  0.001
  Li_i1  Li1+  0.767  0.100  0.367  0.001
  Li_i1  Li1+  0.767  0.167  0.300  0.001
  Li_i1  Li1+  0.633  0.033  0.500  0.001
  Li_i1  Li1+  0.633  0.100  0.433  0.001
  Li_i1  Li1+  0.700  0.033  0.433  0.001
  Li_i1  Li1+  0.700  0.167  0.567  0.001
  Li_i1  Li1+  0.767  0.100  0.567  0.001
  Li_i1  Li1+  0.767  0.167  0.500  0.001
  Li_i1  Li1+  0.633  0.033  0.700  0.001
  Li_i1  Li1+  0.633  0.100  0.633  0.001
  Li_i1  Li1+  0.700  0.033  0.633  0.001
  Li_i1  Li1+  0.700  0.167  0.767  0.001
  Li_i1  Li1+  0.767  0.100  0.767  0.001
  Li_i1  Li1+  0.767  0.167  0.700  0.001
  Li_i1  Li1+  0.633  0.033  0.900  0.001
  Li_i1  Li1+  0.633  0.100  0.833  0.001
  Li_i1  Li1+  0.700  0.033  0.833  0.001
  Li_i1  Li1+  0.700  0.167  0.967  0.001
  Li_i1  Li1+  0.767  0.100  0.967  0.001
  Li_i1  Li1+  0.767  0.167  0.900  0.001
  Li_i1  Li1+  0.633  0.233  0.100  0.001
  Li_i1  Li1+  0.633  0.300  0.033  0.001
  Li_i1  Li1+  0.700  0.233  0.033  0.001
  Li_i1  Li1+  0.700  0.367  0.167  0.001
  Li_i1  Li1+  0.767  0.300  0.167  0.001
  Li_i1  Li1+  0.767  0.367  0.100  0.001
  Li_i1  Li1+  0.633  0.233  0.300  0.001
  Li_i1  Li1+  0.633  0.300  0.233  0.001
  Li_i1  Li1+  0.700  0.233  0.233  0.001
  Li_i1  Li1+  0.700  0.367  0.367  0.001
  Li_i1  Li1+  0.767  0.300  0.367  0.001
  Li_i1  Li1+  0.767  0.367  0.300  0.001
  Li_i1  Li1+  0.633  0.233  0.500  0.001
  Li_i1  Li1+  0.633  0.300  0.433  0.001
  Li_i1  Li1+  0.700  0.233  0.433  0.001
  Li_i1  Li1+  0.700  0.367  0.567  0.001
  Li_i1  Li1+  0.767  0.300  0.567  0.001
  Li_i1  Li1+  0.767  0.367  0.500  0.001
  Li_i1  Li1+  0.633  0.233  0.700  0.001
  Li_i1  Li1+  0.633  0.300  0.633  0.001
  Li_i1  Li1+  0.700  0.233  0.633  0.001
  Li_i1  Li1+  0.700  0.367  0.767  0.001
  Li_i1  Li1+  0.767  0.300  0.767  0.001
  Li_i1  Li1+  0.767  0.367  0.700  0.001
  Li_i1  Li1+  0.633  0.233  0.900  0.001
  Li_i1  Li1+  0.633  0.300  0.833  0.001
  Li_i1  Li1+  0.700  0.233  0.833  0.001
  Li_i1  Li1+  0.700  0.367  0.967  0.001
  Li_i1  Li1+  0.767  0.300  0.967  0.001
  Li_i1  Li1+  0.767  0.367  0.900  0.001
  Li_i1  Li1+  0.633  0.433  0.100  0.001
  Li_i1  Li1+  0.633  0.500  0.033  0.001
  Li_i1  Li1+  0.700  0.433  0.033  0.001
  Li_i1  Li1+  0.700  0.567  0.167  0.001
  Li_i1  Li1+  0.767  0.500  0.167  0.001
  Li_i1  Li1+  0.767  0.567  0.100  0.001
  Li_i1  Li1+  0.633  0.433  0.300  0.001
  Li_i1  Li1+  0.633  0.500  0.233  0.001
  Li_i1  Li1+  0.700  0.433  0.233  0.001
  Li_i1  Li1+  0.700  0.567  0.367  0.001
  Li_i1  Li1+  0.767  0.500  0.367  0.001
  Li_i1  Li1+  0.767  0.567  0.300  0.001
  Li_i1  Li1+  0.633  0.433  0.500  0.001
  Li_i1  Li1+  0.633  0.500  0.433  0.001
  Li_i1  Li1+  0.700  0.433  0.433  0.001
  Li_i1  Li1+  0.700  0.567  0.567  0.001
  Li_i1  Li1+  0.767  0.500  0.567  0.001
  Li_i1  Li1+  0.767  0.567  0.500  0.001
  Li_i1  Li1+  0.633  0.433  0.700  0.001
  Li_i1  Li1+  0.633  0.500  0.633  0.001
  Li_i1  Li1+  0.700  0.433  0.633  0.001
  Li_i1  Li1+  0.700  0.567  0.767  0.001
  Li_i1  Li1+  0.767  0.500  0.767  0.001
  Li_i1  Li1+  0.767  0.567  0.700  0.001
  Li_i1  Li1+  0.633  0.433  0.900  0.001
  Li_i1  Li1+  0.633  0.500  0.833  0.001
  Li_i1  Li1+  0.700  0.433  0.833  0.001
  Li_i1  Li1+  0.700  0.567  0.967  0.001
  Li_i1  Li1+  0.767  0.500  0.967  0.001
  Li_i1  Li1+  0.767  0.567  0.900  0.001
  Li_i1  Li1+  0.633  0.633  0.100  0.001
  Li_i1  Li1+  0.633  0.700  0.033  0.001
  Li_i1  Li1+  0.700  0.633  0.033  0.001
  Li_i1  Li1+  0.700  0.767  0.167  0.001
  Li_i1  Li1+  0.767  0.700  0.167  0.001
  Li_i1  Li1+  0.767  0.767  0.100  0.001
  Li_i1  Li1+  0.633  0.633  0.300  0.001
  Li_i1  Li1+  0.633  0.700  0.233  0.001
  Li_i1  Li1+  0.700  0.633  0.233  0.001
  Li_i1  Li1+  0.700  0.767  0.367  0.001
  Li_i1  Li1+  0.767  0.700  0.367  0.001
  Li_i1  Li1+  0.767  0.767  0.300  0.001
  Li_i1  Li1+  0.633  0.633  0.500  0.001
  Li_i1  Li1+  0.633  0.700  0.433  0.001
  Li_i1  Li1+  0.700  0.633  0.433  0.001
  Li_i1  Li1+  0.700  0.767  0.567  0.001
  Li_i1  Li1+  0.767  0.700  0.567  0.001
  Li_i1  Li1+  0.767  0.767  0.500  0.001
  Li_i1  Li1+  0.633  0.633  0.700  0.001
  Li_i1  Li1+  0.633  0.700  0.633  0.001
  Li_i1  Li1+  0.700  0.633  0.633  0.001
  Li_i1  Li1+  0.700  0.767  0.767  0.001
  Li_i1  Li1+  0.767  0.700  0.767  0.001
  Li_i1  Li1+  0.767  0.767  0.700  0.001
  Li_i1  Li1+  0.633  0.633  0.900  0.001
  Li_i1  Li1+  0.633  0.700  0.833  0.001
  Li_i1  Li1+  0.700  0.633  0.833  0.001
  Li_i1  Li1+  0.700  0.767  0.967  0.001
  Li_i1  Li1+  0.767  0.700  0.967  0.001
  Li_i1  Li1+  0.767  0.767  0.900  0.001
  Li_i1  Li1+  0.633  0.833  0.100  0.001
  Li_i1  Li1+  0.633  0.900  0.033  0.001
  Li_i1  Li1+  0.700  0.833  0.033  0.001
  Li_i1  Li1+  0.700  0.967  0.167  0.001
  Li_i1  Li1+  0.767  0.900  0.167  0.001
  Li_i1  Li1+  0.767  0.967  0.100  0.001
  Li_i1  Li1+  0.633  0.833  0.300  0.001
  Li_i1  Li1+  0.633  0.900  0.233  0.001
  Li_i1  Li1+  0.700  0.833  0.233  0.001
  Li_i1  Li1+  0.700  0.967  0.367  0.001
  Li_i1  Li1+  0.767  0.900  0.367  0.001
  Li_i1  Li1+  0.767  0.967  0.300  0.001
  Li_i1  Li1+  0.633  0.833  0.500  0.001
  Li_i1  Li1+  0.633  0.900  0.433  0.001
  Li_i1  Li1+  0.700  0.833  0.433  0.001
  Li_i1  Li1+  0.700  0.967  0.567  0.001
  Li_i1  Li1+  0.767  0.900  0.567  0.001
  Li_i1  Li1+  0.767  0.967  0.500  0.001
  Li_i1  Li1+  0.633  0.833  0.700  0.001
  Li_i1  Li1+  0.633  0.900  0.633  0.001
  Li_i1  Li1+  0.700  0.833  0.633  0.001
  Li_i1  Li1+  0.700  0.967  0.767  0.001
  Li_i1  Li1+  0.767  0.900  0.767  0.001
  Li_i1  Li1+  0.767  0.967  0.700  0.001
  Li_i1  Li1+  0.633  0.833  0.900  0.001
  Li_i1  Li1+  0.633  0.900  0.833  0.001
  Li_i1  Li1+  0.700  0.833  0.833  0.001
  Li_i1  Li1+  0.700  0.967  0.967  0.001
  Li_i1  Li1+  0.767  0.900  0.967  0.001
  Li_i1  Li1+  0.767  0.967  0.900  0.001
  Li_i1  Li1+  0.833  0.033  0.100  0.001
  Li_i1  Li1+  0.833  0.100  0.033  0.001
  Li_i1  Li1+  0.900  0.033  0.033  0.001
  Li_i1  Li1+  0.900  0.167  0.167  0.001
  Li_i1  Li1+  0.967  0.100  0.167  0.001
  Li_i1  Li1+  0.967  0.167  0.100  0.001
  Li_i1  Li1+  0.833  0.033  0.300  0.001
  Li_i1  Li1+  0.833  0.100  0.233  0.001
  Li_i1  Li1+  0.900  0.033  0.233  0.001
  Li_i1  Li1+  0.900  0.167  0.367  0.001
  Li_i1  Li1+  0.967  0.100  0.367  0.001
  Li_i1  Li1+  0.967  0.167  0.300  0.001
  Li_i1  Li1+  0.833  0.033  0.500  0.001
  Li_i1  Li1+  0.833  0.100  0.433  0.001
  Li_i1  Li1+  0.900  0.033  0.433  0.001
  Li_i1  Li1+  0.900  0.167  0.567  0.001
  Li_i1  Li1+  0.967  0.100  0.567  0.001
  Li_i1  Li1+  0.967  0.167  0.500  0.001
  Li_i1  Li1+  0.833  0.033  0.700  0.001
  Li_i1  Li1+  0.833  0.100  0.633  0.001
  Li_i1  Li1+  0.900  0.033  0.633  0.001
  Li_i1  Li1+  0.900  0.167  0.767  0.001
  Li_i1  Li1+  0.967  0.100  0.767  0.001
  Li_i1  Li1+  0.967  0.167  0.700  0.001
  Li_i1  Li1+  0.833  0.033  0.900  0.001
  Li_i1  Li1+  0.833  0.100  0.833  0.001
  Li_i1  Li1+  0.900  0.033  0.833  0.001
  Li_i1  Li1+  0.900  0.167  0.967  0.001
  Li_i1  Li1+  0.967  0.100  0.967  0.001
  Li_i1  Li1+  0.967  0.167  0.900  0.001
  Li_i1  Li1+  0.833  0.233  0.100  0.001
  Li_i1  Li1+  0.833  0.300  0.033  0.001
  Li_i1  Li1+  0.900  0.233  0.033  0.001
  Li_i1  Li1+  0.900  0.367  0.167  0.001
  Li_i1  Li1+  0.967  0.300  0.167  0.001
  Li_i1  Li1+  0.967  0.367  0.100  0.001
  Li_i1  Li1+  0.833  0.233  0.300  0.001
  Li_i1  Li1+  0.833  0.300  0.233  0.001
  Li_i1  Li1+  0.900  0.233  0.233  0.001
  Li_i1  Li1+  0.900  0.367  0.367  0.001
  Li_i1  Li1+  0.967  0.300  0.367  0.001
  Li_i1  Li1+  0.967  0.367  0.300  0.001
  Li_i1  Li1+  0.833  0.233  0.500  0.001
  Li_i1  Li1+  0.833  0.300  0.433  0.001
  Li_i1  Li1+  0.900  0.233  0.433  0.001
  Li_i1  Li1+  0.900  0.367  0.567  0.001
  Li_i1  Li1+  0.967  0.300  0.567  0.001
  Li_i1  Li1+  0.967  0.367  0.500  0.001
  Li_i1  Li1+  0.833  0.233  0.700  0.001
  Li_i1  Li1+  0.833  0.300  0.633  0.001
  Li_i1  Li1+  0.900  0.233  0.633  0.001
  Li_i1  Li1+  0.900  0.367  0.767  0.001
  Li_i1  Li1+  0.967  0.300  0.767  0.001
  Li_i1  Li1+  0.967  0.367  0.700  0.001
  Li_i1  Li1+  0.833  0.233  0.900  0.001
  Li_i1  Li1+  0.833  0.300  0.833  0.001
  Li_i1  Li1+  0.900  0.233  0.833  0.001
  Li_i1  Li1+  0.900  0.367  0.967  0.001
  Li_i1  Li1+  0.967  0.300  0.967  0.001
  Li_i1  Li1+  0.967  0.367  0.900  0.001
  Li_i1  Li1+  0.833  0.433  0.100  0.001
  Li_i1  Li1+  0.833  0.500  0.033  0.001
  Li_i1  Li1+  0.900  0.433  0.033  0.001
  Li_i1  Li1+  0.900  0.567  0.167  0.001
  Li_i1  Li1+  0.967  0.500  0.167  0.001
  Li_i1  Li1+  0.967  0.567  0.100  0.001
  Li_i1  Li1+  0.833  0.433  0.300  0.001
  Li_i1  Li1+  0.833  0.500  0.233  0.001
  Li_i1  Li1+  0.900  0.433  0.233  0.001
  Li_i1  Li1+  0.900  0.567  0.367  0.001
  Li_i1  Li1+  0.967  0.500  0.367  0.001
  Li_i1  Li1+  0.967  0.567  0.300  0.001
  Li_i1  Li1+  0.833  0.433  0.500  0.001
  Li_i1  Li1+  0.833  0.500  0.433  0.001
  Li_i1  Li1+  0.900  0.433  0.433  0.001
  Li_i1  Li1+  0.900  0.567  0.567  0.001
  Li_i1  Li1+  0.967  0.500  0.567  0.001
  Li_i1  Li1+  0.967  0.567  0.500  0.001
  Li_i1  Li1+  0.833  0.433  0.700  0.001
  Li_i1  Li1+  0.833  0.500  0.633  0.001
  Li_i1  Li1+  0.900  0.433  0.633  0.001
  Li_i1  Li1+  0.900  0.567  0.767  0.001
  Li_i1  Li1+  0.967  0.500  0.767  0.001
  Li_i1  Li1+  0.967  0.567  0.700  0.001
  Li_i1  Li1+  0.833  0.433  0.900  0.001
  Li_i1  Li1+  0.833  0.500  0.833  0.001
  Li_i1  Li1+  0.900  0.433  0.833  0.001
  Li_i1  Li1+  0.900  0.567  0.967  0.001
  Li_i1  Li1+  0.967  0.500  0.967  0.001
  Li_i1  Li1+  0.967  0.567  0.900  0.001
  Li_i1  Li1+  0.833  0.633  0.100  0.001
  Li_i1  Li1+  0.833  0.700  0.033  0.001
  Li_i1  Li1+  0.900  0.633  0.033  0.001
  Li_i1  Li1+  0.900  0.767  0.167  0.001
  Li_i1  Li1+  0.967  0.700  0.167  0.001
  Li_i1  Li1+  0.967  0.767  0.100  0.001
  Li_i1  Li1+  0.833  0.633  0.300  0.001
  Li_i1  Li1+  0.833  0.700  0.233  0.001
  Li_i1  Li1+  0.900  0.633  0.233  0.001
  Li_i1  Li1+  0.900  0.767  0.367  0.001
  Li_i1  Li1+  0.967  0.700  0.367  0.001
  Li_i1  Li1+  0.967  0.767  0.300  0.001
  Li_i1  Li1+  0.833  0.633  0.500  0.001
  Li_i1  Li1+  0.833  0.700  0.433  0.001
  Li_i1  Li1+  0.900  0.633  0.433  0.001
  Li_i1  Li1+  0.900  0.767  0.567  0.001
  Li_i1  Li1+  0.967  0.700  0.567  0.001
  Li_i1  Li1+  0.967  0.767  0.500  0.001
  Li_i1  Li1+  0.833  0.633  0.700  0.001
  Li_i1  Li1+  0.833  0.700  0.633  0.001
  Li_i1  Li1+  0.900  0.633  0.633  0.001
  Li_i1  Li1+  0.900  0.767  0.767  0.001
  Li_i1  Li1+  0.967  0.700  0.767  0.001
  Li_i1  Li1+  0.967  0.767  0.700  0.001
  Li_i1  Li1+  0.833  0.633  0.900  0.001
  Li_i1  Li1+  0.833  0.700  0.833  0.001
  Li_i1  Li1+  0.900  0.633  0.833  0.001
  Li_i1  Li1+  0.900  0.767  0.967  0.001
  Li_i1  Li1+  0.967  0.700  0.967  0.001
  Li_i1  Li1+  0.967  0.767  0.900  0.001
  Li_i1  Li1+  0.833  0.833  0.100  0.001
  Li_i1  Li1+  0.833  0.900  0.033  0.001
  Li_i1  Li1+  0.900  0.833  0.033  0.001
  Li_i1  Li1+  0.900  0.967  0.167  0.001
  Li_i1  Li1+  0.967  0.900  0.167  0.001
  Li_i1  Li1+  0.967  0.967  0.100  0.001
  Li_i1  Li1+  0.833  0.833  0.300  0.001
  Li_i1  Li1+  0.833  0.900  0.233  0.001
  Li_i1  Li1+  0.900  0.833  0.233  0.001
  Li_i1  Li1+  0.900  0.967  0.367  0.001
  Li_i1  Li1+  0.967  0.900  0.367  0.001
  Li_i1  Li1+  0.967  0.967  0.300  0.001
  Li_i1  Li1+  0.833  0.833  0.500  0.001
  Li_i1  Li1+  0.833  0.900  0.433  0.001
  Li_i1  Li1+  0.900  0.833  0.433  0.001
  Li_i1  Li1+  0.900  0.967  0.567  0.001
  Li_i1  Li1+  0.967  0.900  0.567  0.001
  Li_i1  Li1+  0.967  0.967  0.500  0.001
  Li_i1  Li1+  0.833  0.833  0.700  0.001
  Li_i1  Li1+  0.833  0.900  0.633  0.001
  Li_i1  Li1+  0.900  0.833  0.633  0.001
  Li_i1  Li1+  0.900  0.967  0.767  0.001
  Li_i1  Li1+  0.967  0.900  0.767  0.001
  Li_i1  Li1+  0.967  0.967  0.700  0.001
  Li_i1  Li1+  0.833  0.833  0.900  0.001
  Li_i1  Li1+  0.833  0.900  0.833  0.001
  Li_i1  Li1+  0.900  0.833  0.833  0.001
  Li_i1  Li1+  0.900  0.967  0.967  0.001
  Li_i1  Li1+  0.967  0.900  0.967  0.001
  Li_i1  Li1+  0.967  0.967  0.900  0.001
  Li_i2  Li1+  0.450  0.850  0.050  0.001
  Li_i2  Li1+  0.350  0.150  0.950  0.001
  Li_i2  Li1+  0.350  0.550  0.950  0.001
  Li_i2  Li1+  0.550  0.950  0.150  0.001
  Li_i2  Li1+  0.650  0.650  0.850  0.001
  Li_i2  Li1+  0.050  0.850  0.450  0.001
  Li_i2  Li1+  0.050  0.250  0.050  0.001
  Li_i2  Li1+  0.750  0.750  0.950  0.001
  Li_i2  Li1+  0.450  0.050  0.650  0.001
  Li_i2  Li1+  0.150  0.550  0.550  0.001
  Li_i2  Li1+  0.450  0.850  0.250  0.001
  Li_i2  Li1+  0.150  0.950  0.550  0.001
  Li_i2  Li1+  0.650  0.850  0.050  0.001
  Li_i2  Li1+  0.550  0.150  0.750  0.001
  Li_i2  Li1+  0.550  0.950  0.350  0.001
  Li_i2  Li1+  0.750  0.950  0.150  0.001
  Li_i2  Li1+  0.250  0.650  0.050  0.001
  Li_i2  Li1+  0.250  0.250  0.050  0.001
  Li_i2  Li1+  0.050  0.050  0.450  0.001
  Li_i2  Li1+  0.350  0.750  0.150  0.001
  Li_i2  Li1+  0.650  0.850  0.250  0.001
  Li_i2  Li1+  0.450  0.850  0.450  0.001
  Li_i2  Li1+  0.450  0.050  0.850  0.001
  Li_i2  Li1+  0.750  0.950  0.350  0.001
  Li_i2  Li1+  0.150  0.350  0.950  0.001
  Li_i2  Li1+  0.550  0.950  0.550  0.001
  Li_i2  Li1+  0.350  0.350  0.150  0.001
  Li_i2  Li1+  0.550  0.150  0.950  0.001
  Li_i2  Li1+  0.650  0.850  0.450  0.001
  Li_i2  Li1+  0.050  0.650  0.450  0.001
  Li_i2  Li1+  0.050  0.250  0.450  0.001
  Li_i2  Li1+  0.750  0.950  0.550  0.001
  Li_i2  Li1+  0.450  0.850  0.650  0.001
  Li_i2  Li1+  0.250  0.650  0.250  0.001
  Li_i2  Li1+  0.050  0.850  0.650  0.001
  Li_i2  Li1+  0.550  0.950  0.750  0.001
  Li_i2  Li1+  0.650  0.850  0.650  0.001
  Li_i2  Li1+  0.450  0.250  0.050  0.001
  Li_i2  Li1+  0.050  0.050  0.250  0.001
  Li_i2  Li1+  0.750  0.950  0.750  0.001
  Li_i2  Li1+  0.350  0.750  0.350  0.001
  Li_i2  Li1+  0.550  0.350  0.150  0.001
  Li_i2  Li1+  0.450  0.850  0.850  0.001
  Li_i2  Li1+  0.250  0.250  0.250  0.001
  Li_i2  Li1+  0.650  0.850  0.850  0.001
  Li_i2  Li1+  0.150  0.750  0.550  0.001
  Li_i2  Li1+  0.550  0.950  0.950  0.001
  Li_i2  Li1+  0.750  0.950  0.950  0.001
  Li_i2  Li1+  0.150  0.950  0.750  0.001
  Li_i2  Li1+  0.350  0.350  0.350  0.001
  Li_i2  Li1+  0.450  0.250  0.250  0.001
  Li_i2  Li1+  0.250  0.650  0.450  0.001
  Li_i2  Li1+  0.850  0.050  0.050  0.001
  Li_i2  Li1+  0.650  0.050  0.050  0.001
  Li_i2  Li1+  0.050  0.450  0.650  0.001
  Li_i2  Li1+  0.950  0.150  0.150  0.001
  Li_i2  Li1+  0.550  0.350  0.350  0.001
  Li_i2  Li1+  0.750  0.150  0.150  0.001
  Li_i2  Li1+  0.150  0.350  0.150  0.001
  Li_i2  Li1+  0.350  0.750  0.550  0.001
  Li_i2  Li1+  0.850  0.050  0.250  0.001
  Li_i2  Li1+  0.150  0.350  0.550  0.001
  Li_i2  Li1+  0.150  0.550  0.750  0.001
  Li_i2  Li1+  0.950  0.150  0.350  0.001
  Li_i2  Li1+  0.650  0.050  0.250  0.001
  Li_i2  Li1+  0.450  0.250  0.450  0.001
  Li_i2  Li1+  0.250  0.250  0.450  0.001
  Li_i2  Li1+  0.750  0.150  0.350  0.001
  Li_i2  Li1+  0.850  0.050  0.450  0.001
  Li_i2  Li1+  0.050  0.850  0.850  0.001
  Li_i2  Li1+  0.550  0.350  0.550  0.001
  Li_i2  Li1+  0.950  0.150  0.550  0.001
  Li_i2  Li1+  0.250  0.650  0.650  0.001
  Li_i2  Li1+  0.050  0.650  0.650  0.001
  Li_i2  Li1+  0.650  0.050  0.450  0.001
  Li_i2  Li1+  0.350  0.350  0.550  0.001
  Li_i2  Li1+  0.850  0.050  0.650  0.001
  Li_i2  Li1+  0.350  0.750  0.750  0.001
  Li_i2  Li1+  0.750  0.150  0.550  0.001
  Li_i2  Li1+  0.950  0.150  0.750  0.001
  Li_i2  Li1+  0.450  0.250  0.650  0.001
  Li_i2  Li1+  0.050  0.450  0.050  0.001
  Li_i2  Li1+  0.150  0.950  0.950  0.001
  Li_i2  Li1+  0.550  0.350  0.750  0.001
  Li_i2  Li1+  0.850  0.050  0.850  0.001
  Li_i2  Li1+  0.650  0.050  0.650  0.001
  Li_i2  Li1+  0.050  0.050  0.850  0.001
  Li_i2  Li1+  0.950  0.150  0.950  0.001
  Li_i2  Li1+  0.150  0.750  0.750  0.001
  Li_i2  Li1+  0.750  0.150  0.750  0.001
  Li_i2  Li1+  0.250  0.650  0.850  0.001
  Li_i2  Li1+  0.250  0.250  0.650  0.001
  Li_i2  Li1+  0.850  0.250  0.050  0.001
  Li_i2  Li1+  0.450  0.250  0.850  0.001
  Li_i2  Li1+  0.050  0.050  0.650  0.001
  Li_i2  Li1+  0.950  0.350  0.150  0.001
  Li_i2  Li1+  0.650  0.050  0.850  0.001
  Li_i2  Li1+  0.350  0.750  0.950  0.001
  Li_i2  Li1+  0.550  0.350  0.950  0.001
  Li_i2  Li1+  0.750  0.150  0.950  0.001
  Li_i2  Li1+  0.850  0.250  0.250  0.001
  Li_i2  Li1+  0.150  0.550  0.150  0.001
  Li_i2  Li1+  0.350  0.350  0.750  0.001
  Li_i2  Li1+  0.950  0.350  0.350  0.001
  Li_i2  Li1+  0.250  0.050  0.050  0.001
  Li_i2  Li1+  0.050  0.450  0.850  0.001
  Li_i2  Li1+  0.650  0.250  0.050  0.001
  Li_i2  Li1+  0.450  0.450  0.050  0.001
  Li_i2  Li1+  0.850  0.250  0.450  0.001
  Li_i2  Li1+  0.250  0.850  0.050  0.001
  Li_i2  Li1+  0.750  0.350  0.150  0.001
  Li_i2  Li1+  0.950  0.350  0.550  0.001
  Li_i2  Li1+  0.050  0.050  0.050  0.001
  Li_i2  Li1+  0.550  0.550  0.150  0.001
  Li_i2  Li1+  0.350  0.150  0.150  0.001
  Li_i2  Li1+  0.350  0.950  0.150  0.001
  Li_i2  Li1+  0.850  0.250  0.650  0.001
  Li_i2  Li1+  0.650  0.250  0.250  0.001
  Li_i2  Li1+  0.250  0.250  0.850  0.001
  Li_i2  Li1+  0.950  0.350  0.750  0.001
  Li_i2  Li1+  0.050  0.650  0.850  0.001
  Li_i2  Li1+  0.750  0.350  0.350  0.001
  Li_i2  Li1+  0.450  0.450  0.250  0.001
  Li_i2  Li1+  0.150  0.150  0.950  0.001
  Li_i2  Li1+  0.850  0.250  0.850  0.001
  Li_i2  Li1+  0.350  0.350  0.950  0.001
  Li_i2  Li1+  0.550  0.550  0.350  0.001
  Li_i2  Li1+  0.950  0.350  0.950  0.001
  Li_i2  Li1+  0.650  0.250  0.450  0.001
  Li_i2  Li1+  0.250  0.850  0.250  0.001
  Li_i2  Li1+  0.150  0.550  0.950  0.001
  Li_i2  Li1+  0.750  0.350  0.550  0.001
  Li_i2  Li1+  0.850  0.450  0.050  0.001
  Li_i2  Li1+  0.150  0.750  0.950  0.001
  Li_i2  Li1+  0.350  0.950  0.350  0.001
  Li_i2  Li1+  0.950  0.550  0.150  0.001
  Li_i2  Li1+  0.450  0.450  0.450  0.001
  Li_i2  Li1+  0.250  0.050  0.250  0.001
  Li_i2  Li1+  0.650  0.250  0.650  0.001
  Li_i2  Li1+  0.050  0.250  0.650  0.001
  Li_i2  Li1+  0.850  0.450  0.250  0.001
  Li_i2  Li1+  0.550  0.550  0.550  0.001
  Li_i2  Li1+  0.750  0.350  0.750  0.001
  Li_i2  Li1+  0.950  0.550  0.350  0.001
  Li_i2  Li1+  0.250  0.450  0.050  0.001
  Li_i2  Li1+  0.050  0.250  0.250  0.001
  Li_i2  Li1+  0.250  0.850  0.450  0.001
  Li_i2  Li1+  0.350  0.150  0.350  0.001
  Li_i2  Li1+  0.850  0.450  0.450  0.001
  Li_i2  Li1+  0.650  0.250  0.850  0.001
  Li_i2  Li1+  0.450  0.450  0.650  0.001
  Li_i2  Li1+  0.950  0.550  0.550  0.001
  Li_i2  Li1+  0.350  0.550  0.150  0.001
  Li_i2  Li1+  0.750  0.350  0.950  0.001
  Li_i2  Li1+  0.350  0.950  0.550  0.001
  Li_i2  Li1+  0.550  0.550  0.750  0.001
  Li_i2  Li1+  0.850  0.450  0.650  0.001
  Li_i2  Li1+  0.050  0.450  0.250  0.001
  Li_i2  Li1+  0.150  0.150  0.550  0.001
  Li_i2  Li1+  0.950  0.550  0.750  0.001
  Li_i2  Li1+  0.650  0.450  0.050  0.001
  Li_i2  Li1+  0.050  0.850  0.050  0.001
  Li_i2  Li1+  0.050  0.650  0.050  0.001
  Li_i2  Li1+  0.750  0.550  0.150  0.001
  Li_i2  Li1+  0.850  0.450  0.850  0.001
  Li_i2  Li1+  0.450  0.450  0.850  0.001
  Li_i2  Li1+  0.250  0.850  0.650  0.001
  Li_i2  Li1+  0.950  0.550  0.950  0.001
  Li_i2  Li1+  0.250  0.450  0.250  0.001
  Li_i2  Li1+  0.550  0.550  0.950  0.001
  Li_i2  Li1+  0.650  0.450  0.250  0.001
  Li_i2  Li1+  0.250  0.050  0.450  0.001
  Li_i2  Li1+  0.850  0.650  0.050  0.001
  Li_i2  Li1+  0.350  0.950  0.750  0.001
  Li_i2  Li1+  0.750  0.550  0.350  0.001
  Li_i2  Li1+  0.950  0.750  0.150  0.001
  Li_i2  Li1+  0.150  0.350  0.750  0.001
  Li_i2  Li1+  0.350  0.550  0.350  0.001
  Li_i2  Li1+  0.450  0.650  0.050  0.001
  Li_i2  Li1+  0.150  0.950  0.150  0.001
  Li_i2  Li1+  0.850  0.650  0.250  0.001
  Li_i2  Li1+  0.650  0.450  0.450  0.001
  Li_i2  Li1+  0.350  0.150  0.550  0.001
  Li_i2  Li1+  0.950  0.750  0.350  0.001
  Li_i2  Li1+  0.550  0.750  0.150  0.001
  Li_i2  Li1+  0.750  0.550  0.550  0.001
  Li_i2  Li1+  0.250  0.850  0.850  0.001
  Li_i2  Li1+  0.150  0.550  0.350  0.001
  Li_i2  Li1+  0.850  0.650  0.450  0.001
  Li_i2  Li1+  0.150  0.750  0.150  0.001
  Li_i2  Li1+  0.350  0.950  0.950  0.001
  Li_i2  Li1+  0.950  0.750  0.550  0.001
  Li_i2  Li1+  0.650  0.450  0.650  0.001
  Li_i2  Li1+  0.450  0.650  0.250  0.001
  Li_i2  Li1+  0.250  0.450  0.450  0.001
  Li_i2  Li1+  0.750  0.550  0.750  0.001
  Li_i2  Li1+  0.850  0.650  0.650  0.001
  Li_i2  Li1+  0.150  0.150  0.750  0.001
  Li_i2  Li1+  0.550  0.750  0.350  0.001
  Li_i2  Li1+  0.950  0.750  0.750  0.001
  Li_i2  Li1+  0.150  0.350  0.350  0.001
  Li_i2  Li1+  0.350  0.550  0.550  0.001
  Li_i2  Li1+  0.650  0.450  0.850  0.001
  Li_i2  Li1+  0.450  0.050  0.050  0.001
  Li_i2  Li1+  0.850  0.650  0.850  0.001
  Li_i2  Li1+  0.250  0.050  0.650  0.001
  Li_i2  Li1+  0.750  0.550  0.950  0.001
  Li_i2  Li1+  0.950  0.750  0.950  0.001
  Li_i2  Li1+  0.450  0.650  0.450  0.001
  Li_i2  Li1+  0.050  0.850  0.250  0.001
  Li_i2  Li1+  0.550  0.150  0.150  0.001
  Li_i2  Li1+  0.550  0.750  0.550  0.001
  Li_i2  Li1+  0.850  0.850  0.050  0.001
  Li_i2  Li1+  0.650  0.650  0.050  0.001
  Li_i2  Li1+  0.150  0.150  0.150  0.001
  Li_i2  Li1+  0.950  0.950  0.150  0.001
  Li_i2  Li1+  0.350  0.150  0.750  0.001
  Li_i2  Li1+  0.750  0.750  0.150  0.001
  Li_i2  Li1+  0.250  0.450  0.650  0.001
  Li_i2  Li1+  0.150  0.150  0.350  0.001
  Li_i2  Li1+  0.850  0.850  0.250  0.001
  Li_i2  Li1+  0.450  0.650  0.650  0.001
  Li_i2  Li1+  0.450  0.050  0.250  0.001
  Li_i2  Li1+  0.950  0.950  0.350  0.001
  Li_i2  Li1+  0.650  0.650  0.250  0.001
  Li_i2  Li1+  0.150  0.950  0.350  0.001
  Li_i2  Li1+  0.550  0.750  0.750  0.001
  Li_i2  Li1+  0.750  0.750  0.350  0.001
  Li_i2  Li1+  0.850  0.850  0.450  0.001
  Li_i2  Li1+  0.350  0.550  0.750  0.001
  Li_i2  Li1+  0.550  0.150  0.350  0.001
  Li_i2  Li1+  0.950  0.950  0.550  0.001
  Li_i2  Li1+  0.050  0.650  0.250  0.001
  Li_i2  Li1+  0.050  0.450  0.450  0.001
  Li_i2  Li1+  0.650  0.650  0.450  0.001
  Li_i2  Li1+  0.450  0.650  0.850  0.001
  Li_i2  Li1+  0.850  0.850  0.650  0.001
  Li_i2  Li1+  0.250  0.050  0.850  0.001
  Li_i2  Li1+  0.750  0.750  0.550  0.001
  Li_i2  Li1+  0.950  0.950  0.750  0.001
  Li_i2  Li1+  0.050  0.250  0.850  0.001
  Li_i2  Li1+  0.550  0.750  0.950  0.001
  Li_i2  Li1+  0.450  0.050  0.450  0.001
  Li_i2  Li1+  0.250  0.450  0.850  0.001
  Li_i2  Li1+  0.850  0.850  0.850  0.001
  Li_i2  Li1+  0.650  0.650  0.650  0.001
  Li_i2  Li1+  0.150  0.750  0.350  0.001
  Li_i2  Li1+  0.950  0.950  0.950  0.001
  Li_i2  Li1+  0.550  0.150  0.550  0.001
  Li_i2  Li1+  0.750  0.750  0.750  0.001
  Li0  Li1+  0.200  0.600  0.600  1.000
  Li0  Li1+  0.600  0.000  0.600  1.000
  Li0  Li1+  -0.000  0.800  0.200  1.000
  Li0  Li1+  0.600  0.800  0.800  1.000
  Li0  Li1+  0.600  0.400  0.600  1.000
  Li0  Li1+  0.200  0.200  0.800  1.000
  Li0  Li1+  0.000  0.400  0.600  1.000
  Li0  Li1+  0.400  0.200  0.000  1.000
  Li0  Li1+  0.800  0.400  0.400  1.000
  Li0  Li1+  0.400  0.400  0.400  1.000
  Li0  Li1+  0.000  0.200  0.800  1.000
  Li0  Li1+  0.400  0.800  0.000  1.000
  Li0  Li1+  0.200  0.800  0.800  1.000
  Li0  Li1+  0.800  0.000  0.000  1.000
  Li0  Li1+  0.600  0.000  0.800  1.000
  Li0  Li1+  0.600  0.400  0.800  1.000
  Li0  Li1+  0.200  0.000  0.400  1.000
  Li0  Li1+  0.800  0.400  0.600  1.000
  Li0  Li1+  0.000  0.800  0.800  1.000
  Li0  Li1+  0.000  0.200  0.600  1.000
  Li0  Li1+  0.200  0.400  0.800  1.000
  Li0  Li1+  0.200  0.600  0.800  1.000
  Li0  Li1+  0.000  0.600  0.800  1.000
  Li0  Li1+  0.800  0.000  0.200  1.000
  Li0  Li1+  0.400  0.400  0.600  1.000
  Li0  Li1+  0.400  0.800  0.200  1.000
  Li0  Li1+  0.800  0.400  0.800  1.000
  Li0  Li1+  0.600  0.600  0.000  1.000
  Li0  Li1+  0.600  0.200  0.000  1.000
  Li0  Li1+  0.400  0.200  0.200  1.000
  Li0  Li1+  0.000  0.600  0.000  1.000
  Li0  Li1+  0.200  0.200  0.200  1.000
  Li0  Li1+  0.400  0.000  0.000  1.000
  Li0  Li1+  0.800  0.000  0.400  1.000
  Li0  Li1+  0.200  0.400  0.000  1.000
  Li0  Li1+  0.800  0.600  0.000  1.000
  Li0  Li1+  0.000  0.600  0.400  1.000
  Li0  Li1+  0.000  0.000  0.000  1.000
  Li0  Li1+  0.600  0.600  0.200  1.000
  Li0  Li1+  0.000  0.000  0.200  1.000
  Li0  Li1+  0.600  0.200  0.200  1.000
  Li0  Li1+  0.400  0.800  0.400  1.000
  Li0  Li1+  0.400  0.400  0.800  1.000
  Li0  Li1+  0.800  0.000  0.600  1.000
  Li0  Li1+  0.800  0.600  0.200  1.000
  Li0  Li1+  0.000  0.800  0.400  1.000
  Li0  Li1+  0.400  0.200  0.400  1.000
  Li0  Li1+  0.200  0.800  0.000  1.000
  Li0  Li1+  0.200  0.600  0.000  1.000
  Li0  Li1+  0.600  0.600  0.400  1.000
  Li0  Li1+  0.200  0.000  0.600  1.000
  Li0  Li1+  0.400  0.000  0.200  1.000
  Li0  Li1+  0.600  0.200  0.400  1.000
  Li0  Li1+  0.800  0.600  0.400  1.000
  Li0  Li1+  0.800  0.000  0.800  1.000
  Li0  Li1+  0.000  0.400  0.400  1.000
  Li0  Li1+  0.400  0.800  0.600  1.000
  Li0  Li1+  0.200  0.000  0.000  1.000
  Li0  Li1+  0.400  0.600  0.000  1.000
  Li0  Li1+  0.000  0.200  0.000  1.000
  Li0  Li1+  0.600  0.600  0.600  1.000
  Li0  Li1+  0.200  0.400  0.200  1.000
  Li0  Li1+  0.800  0.600  0.600  1.000
  Li0  Li1+  0.400  0.200  0.600  1.000
  Li0  Li1+  0.800  0.200  0.000  1.000
  Li0  Li1+  0.200  0.200  0.400  1.000
  Li0  Li1+  0.600  0.200  0.600  1.000
  Li0  Li1+  0.000  0.000  0.600  1.000
  Li0  Li1+  0.200  0.800  0.200  1.000
  Li0  Li1+  0.400  0.800  0.800  1.000
  Li0  Li1+  0.000  0.000  0.800  1.000
  Li0  Li1+  0.800  0.600  0.800  1.000
  Li0  Li1+  0.600  0.600  0.800  1.000
  Li0  Li1+  0.400  0.000  0.400  1.000
  Li0  Li1+  0.800  0.200  0.200  1.000
  Li0  Li1+  0.400  0.600  0.200  1.000
  Li0  Li1+  0.200  0.600  0.200  1.000
  Li0  Li1+  0.000  0.800  0.000  1.000
  Li0  Li1+  0.600  0.200  0.800  1.000
  Li0  Li1+  0.000  0.400  0.800  1.000
  Li0  Li1+  0.800  0.800  0.000  1.000
  Li0  Li1+  0.400  0.200  0.800  1.000
  Li0  Li1+  0.000  0.400  0.200  1.000
  Li0  Li1+  0.600  0.800  0.000  1.000
  Li0  Li1+  0.800  0.200  0.400  1.000
  Li0  Li1+  0.600  0.000  0.000  1.000
  Li0  Li1+  0.200  0.000  0.800  1.000
  Li0  Li1+  0.000  0.600  0.600  1.000
  Li0  Li1+  0.200  0.400  0.400  1.000
  Li0  Li1+  0.800  0.800  0.200  1.000
  Li0  Li1+  0.400  0.600  0.400  1.000
  Li0  Li1+  0.600  0.400  0.000  1.000
  Li0  Li1+  0.200  0.800  0.400  1.000
  Li0  Li1+  0.400  0.000  0.600  1.000
  Li0  Li1+  0.800  0.200  0.600  1.000
  Li0  Li1+  0.600  0.800  0.200  1.000
  Li0  Li1+  0.000  0.800  0.600  1.000
  Li0  Li1+  0.200  0.200  0.600  1.000
  Li0  Li1+  0.800  0.800  0.400  1.000
  Li0  Li1+  0.600  0.000  0.200  1.000
  Li0  Li1+  0.400  0.400  0.000  1.000
  Li0  Li1+  0.200  0.600  0.400  1.000
  Li0  Li1+  0.200  0.000  0.200  1.000
  Li0  Li1+  0.600  0.400  0.200  1.000
  Li0  Li1+  0.800  0.200  0.800  1.000
  Li0  Li1+  0.000  0.600  0.200  1.000
  Li0  Li1+  0.600  0.800  0.400  1.000
  Li0  Li1+  0.800  0.800  0.600  1.000
  Li0  Li1+  0.400  0.600  0.600  1.000
  Li0  Li1+  0.000  0.200  0.200  1.000
  Li0  Li1+  0.000  0.000  0.400  1.000
  Li0  Li1+  0.000  0.400  0.000  1.000
  Li0  Li1+  0.600  0.000  0.400  1.000
  Li0  Li1+  0.400  0.000  0.800  1.000
  Li0  Li1+  0.800  0.400  0.000  1.000
  Li0  Li1+  0.200  0.800  0.600  1.000
  Li0  Li1+  0.800  0.800  0.800  1.000
  Li0  Li1+  0.600  0.400  0.400  1.000
  Li0  Li1+  0.600  0.800  0.600  1.000
  Li0  Li1+  0.400  0.400  0.200  1.000
  Li0  Li1+  0.000  0.200  0.400  1.000
  Li0  Li1+  0.200  0.400  0.600  1.000
  Li0  Li1+  0.400  0.600  0.800  1.000
  Li0  Li1+  0.200  0.200  0.000  1.000
  Li0  Li1+  0.800  0.400  0.200  1.000

#end of data
