data_generated-by-softBV

_chemical_name_systematic         'I1-:1.000 Li1+:1.000 '
_cell_length_a                    21.304
_cell_length_b                    21.304
_cell_length_c                    21.304
_cell_angle_alpha                 60.000
_cell_angle_beta                  60.000
_cell_angle_gamma                 60.000
_cell_volume                      6837.110
_cell_formula_units_Z             0
_symmetry_space_group_name_H-M    'P 1'
_symmetry_Int_Tables_number       1

loop_
  _symmetry_equiv_pos_site_id
  _symmetry_equiv_pos_as_xyz
    1    'x, y, z'

loop_
  _atom_type_symbol
  _atom_type_oxidation_number
  I1-     -1
  Li1+     1

loop_
  _atom_site_label
  _atom_site_type_symbol
  _atom_site_fract_x
  _atom_site_fract_y
  _atom_site_fract_z
  _atom_site_occupancy
  I1  I1-  0.100  0.100  0.100  1.000
  I1  I1-  0.100  0.100  0.300  1.000
  I1  I1-  0.100  0.100  0.500  1.000
  I1  I1-  0.100  0.100  0.700  1.000
  I1  I1-  0.100  0.100  0.900  1.000
  I1  I1-  0.100  0.300  0.100  1.000
  I1  I1-  0.100  0.300  0.300  1.000
  I1  I1-  0.100  0.300  0.500  1.000
  I1  I1-  0.100  0.300  0.700  1.000
  I1  I1-  0.100  0.300  0.900  1.000
  I1  I1-  0.100  0.500  0.100  1.000
  I1  I1-  0.100  0.500  0.300  1.000
  I1  I1-  0.100  0.500  0.500  1.000
  I1  I1-  0.100  0.500  0.700  1.000
  I1  I1-  0.100  0.500  0.900  1.000
  I1  I1-  0.100  0.700  0.100  1.000
  I1  I1-  0.100  0.700  0.300  1.000
  I1  I1-  0.100  0.700  0.500  1.000
  I1  I1-  0.100  0.700  0.700  1.000
  I1  I1-  0.100  0.700  0.900  1.000
  I1  I1-  0.100  0.900  0.100  1.000
  I1  I1-  0.100  0.900  0.300  1.000
  I1  I1-  0.100  0.900  0.500  1.000
  I1  I1-  0.100  0.900  0.700  1.000
  I1  I1-  0.100  0.900  0.900  1.000
  I1  I1-  0.300  0.100  0.100  1.000
  I1  I1-  0.300  0.100  0.300  1.000
  I1  I1-  0.300  0.100  0.500  1.000
  I1  I1-  0.300  0.100  0.700  1.000
  I1  I1-  0.300  0.100  0.900  1.000
  I1  I1-  0.300  0.300  0.100  1.000
  I1  I1-  0.300  0.300  0.300  1.000
  I1  I1-  0.300  0.300  0.500  1.000
  I1  I1-  0.300  0.300  0.700  1.000
  I1  I1-  0.300  0.300  0.900  1.000
  I1  I1-  0.300  0.500  0.100  1.000
  I1  I1-  0.300  0.500  0.300  1.000
  I1  I1-  0.300  0.500  0.500  1.000
  I1  I1-  0.300  0.500  0.700  1.000
  I1  I1-  0.300  0.500  0.900  1.000
  I1  I1-  0.300  0.700  0.100  1.000
  I1  I1-  0.300  0.700  0.300  1.000
  I1  I1-  0.300  0.700  0.500  1.000
  I1  I1-  0.300  0.700  0.700  1.000
  I1  I1-  0.300  0.700  0.900  1.000
  I1  I1-  0.300  0.900  0.100  1.000
  I1  I1-  0.300  0.900  0.300  1.000
  I1  I1-  0.300  0.900  0.500  1.000
  I1  I1-  0.300  0.900  0.700  1.000
  I1  I1-  0.300  0.900  0.900  1.000
  I1  I1-  0.500  0.100  0.100  1.000
  I1  I1-  0.500  0.100  0.300  1.000
  I1  I1-  0.500  0.100  0.500  1.000
  I1  I1-  0.500  0.100  0.700  1.000
  I1  I1-  0.500  0.100  0.900  1.000
  I1  I1-  0.500  0.300  0.100  1.000
  I1  I1-  0.500  0.300  0.300  1.000
  I1  I1-  0.500  0.300  0.500  1.000
  I1  I1-  0.500  0.300  0.700  1.000
  I1  I1-  0.500  0.300  0.900  1.000
  I1  I1-  0.500  0.500  0.100  1.000
  I1  I1-  0.500  0.500  0.300  1.000
  I1  I1-  0.500  0.500  0.500  1.000
  I1  I1-  0.500  0.500  0.700  1.000
  I1  I1-  0.500  0.500  0.900  1.000
  I1  I1-  0.500  0.700  0.100  1.000
  I1  I1-  0.500  0.700  0.300  1.000
  I1  I1-  0.500  0.700  0.500  1.000
  I1  I1-  0.500  0.700  0.700  1.000
  I1  I1-  0.500  0.700  0.900  1.000
  I1  I1-  0.500  0.900  0.100  1.000
  I1  I1-  0.500  0.900  0.300  1.000
  I1  I1-  0.500  0.900  0.500  1.000
  I1  I1-  0.500  0.900  0.700  1.000
  I1  I1-  0.500  0.900  0.900  1.000
  I1  I1-  0.700  0.100  0.100  1.000
  I1  I1-  0.700  0.100  0.300  1.000
  I1  I1-  0.700  0.100  0.500  1.000
  I1  I1-  0.700  0.100  0.700  1.000
  I1  I1-  0.700  0.100  0.900  1.000
  I1  I1-  0.700  0.300  0.100  1.000
  I1  I1-  0.700  0.300  0.300  1.000
  I1  I1-  0.700  0.300  0.500  1.000
  I1  I1-  0.700  0.300  0.700  1.000
  I1  I1-  0.700  0.300  0.900  1.000
  I1  I1-  0.700  0.500  0.100  1.000
  I1  I1-  0.700  0.500  0.300  1.000
  I1  I1-  0.700  0.500  0.500  1.000
  I1  I1-  0.700  0.500  0.700  1.000
  I1  I1-  0.700  0.500  0.900  1.000
  I1  I1-  0.700  0.700  0.100  1.000
  I1  I1-  0.700  0.700  0.300  1.000
  I1  I1-  0.700  0.700  0.500  1.000
  I1  I1-  0.700  0.700  0.700  1.000
  I1  I1-  0.700  0.700  0.900  1.000
  I1  I1-  0.700  0.900  0.100  1.000
  I1  I1-  0.700  0.900  0.300  1.000
  I1  I1-  0.700  0.900  0.500  1.000
  I1  I1-  0.700  0.900  0.700  1.000
  I1  I1-  0.700  0.900  0.900  1.000
  I1  I1-  0.900  0.100  0.100  1.000
  I1  I1-  0.900  0.100  0.300  1.000
  I1  I1-  0.900  0.100  0.500  1.000
  I1  I1-  0.900  0.100  0.700  1.000
  I1  I1-  0.900  0.100  0.900  1.000
  I1  I1-  0.900  0.300  0.100  1.000
  I1  I1-  0.900  0.300  0.300  1.000
  I1  I1-  0.900  0.300  0.500  1.000
  I1  I1-  0.900  0.300  0.700  1.000
  I1  I1-  0.900  0.300  0.900  1.000
  I1  I1-  0.900  0.500  0.100  1.000
  I1  I1-  0.900  0.500  0.300  1.000
  I1  I1-  0.900  0.500  0.500  1.000
  I1  I1-  0.900  0.500  0.700  1.000
  I1  I1-  0.900  0.500  0.900  1.000
  I1  I1-  0.900  0.700  0.100  1.000
  I1  I1-  0.900  0.700  0.300  1.000
  I1  I1-  0.900  0.700  0.500  1.000
  I1  I1-  0.900  0.700  0.700  1.000
  I1  I1-  0.900  0.700  0.900  1.000
  I1  I1-  0.900  0.900  0.100  1.000
  I1  I1-  0.900  0.900  0.300  1.000
  I1  I1-  0.900  0.900  0.500  1.000
  I1  I1-  0.900  0.900  0.700  1.000
  I1  I1-  0.900  0.900  0.900  1.000
  Li43  Li1+  0.150  0.150  0.950  0.000
  Li70  Li1+  0.150  0.350  0.550  0.000
  Li112  Li1+  0.050  0.450  0.450  0.000
  Li115  Li1+  0.150  0.550  0.550  0.000
  Li148  Li1+  0.050  0.650  0.250  0.000
  Li160  Li1+  0.150  0.750  0.550  0.000
  Li205  Li1+  0.150  0.950  0.550  0.000
  Li240  Li1+  0.300  0.167  0.367  0.000
  Li268  Li1+  0.350  0.150  0.950  0.000
  Li302  Li1+  0.300  0.233  0.633  0.000
  Li337  Li1+  0.250  0.450  0.450  0.000
  Li358  Li1+  0.350  0.550  0.950  0.000
  Li385  Li1+  0.350  0.750  0.550  0.000
  Li412  Li1+  0.350  0.950  0.150  0.000
  Li430  Li1+  0.350  0.950  0.550  0.000
  Li556  Li1+  0.550  0.550  0.350  0.000
  Li557  Li1+  0.567  0.500  0.367  0.000
  Li652  Li1+  0.450  0.850  0.450  0.000
  Li670  Li1+  0.450  0.850  0.850  0.000
  Li742  Li1+  0.650  0.250  0.450  0.000
  Li769  Li1+  0.650  0.450  0.050  0.000
  Li832  Li1+  0.650  0.650  0.450  0.000
  Li894  Li1+  0.633  0.900  0.833  0.000
  Li958  Li1+  0.850  0.250  0.250  0.000
  Li986  Li1+  0.900  0.233  0.833  0.000
  Li1093  Li1+  0.850  0.850  0.250  0.000
  Li1096  Li1+  0.950  0.950  0.350  0.000
  Li416  Li1+  0.233  0.833  0.300  0.000
  Li114  Li1+  0.100  0.567  0.567  0.000
  Li326  Li1+  0.233  0.433  0.300  0.000
  Li816  Li1+  0.700  0.767  0.167  0.000
  Li1097  Li1+  0.967  0.900  0.367  0.000
  Li659  Li1+  0.433  0.833  0.700  0.000
  Li860  Li1+  0.700  0.833  0.033  0.000
  Li107  Li1+  0.167  0.500  0.367  0.000
  Li548  Li1+  0.567  0.500  0.167  0.000
  Li167  Li1+  0.100  0.633  0.633  0.000
  Li1049  Li1+  0.900  0.633  0.233  0.000
  Li1026  Li1+  0.967  0.567  0.700  0.000
  Li924  Li1+  0.900  0.167  0.567  0.000
  Li39  Li1+  0.033  0.100  0.833  0.000
  Li1110  Li1+  0.833  0.900  0.633  0.000
  Li641  Li1+  0.433  0.833  0.300  0.000
  Li97  Li1+  0.150  0.550  0.150  0.000
  Li866  Li1+  0.633  0.833  0.300  0.000
  Li770  Li1+  0.700  0.433  0.033  0.000
  Li734  Li1+  0.700  0.233  0.233  0.000
  Li329  Li1+  0.300  0.433  0.233  0.000
  Li1094  Li1+  0.900  0.833  0.233  0.000
  Li788  Li1+  0.700  0.433  0.433  0.000
  Li447  Li1+  0.300  0.967  0.967  0.000
  Li797  Li1+  0.700  0.433  0.633  0.000
  Li732  Li1+  0.633  0.300  0.233  0.000
  Li644  Li1+  0.500  0.833  0.233  0.000
  Li359  Li1+  0.367  0.500  0.967  0.000
  Li467  Li1+  0.567  0.100  0.367  0.000
  Li21  Li1+  0.033  0.100  0.433  0.000
  Li392  Li1+  0.300  0.633  0.633  0.000
  Li116  Li1+  0.167  0.500  0.567  0.000
  Li768  Li1+  0.633  0.500  0.033  0.000
  Li429  Li1+  0.300  0.967  0.567  0.000
  Li344  Li1+  0.233  0.433  0.700  0.000
  Li708  Li1+  0.700  0.167  0.767  0.000
  Li1121  Li1+  0.900  0.833  0.833  0.000
  Li485  Li1+  0.567  0.100  0.767  0.000
  Li204  Li1+  0.100  0.967  0.567  0.000
  Li150  Li1+  0.100  0.767  0.367  0.000
  Li149  Li1+  0.100  0.633  0.233  0.000
  Li386  Li1+  0.367  0.700  0.567  0.000
  Li519  Li1+  0.500  0.367  0.567  0.000
  Li572  Li1+  0.500  0.433  0.633  0.000
  Li612  Li1+  0.567  0.767  0.500  0.000
  Li421  Li1+  0.350  0.950  0.350  0.000
  Li887  Li1+  0.700  0.833  0.633  0.000
  Li499  Li1+  0.450  0.250  0.050  0.000
  Li1078  Li1+  0.950  0.750  0.950  0.000
  Li536  Li1+  0.500  0.233  0.833  0.000
  Li473  Li1+  0.500  0.033  0.433  0.000
  Li50  Li1+  0.100  0.233  0.033  0.000
  Li165  Li1+  0.033  0.700  0.633  0.000
  Li321  Li1+  0.300  0.567  0.167  0.000
  Li140  Li1+  0.100  0.633  0.033  0.000
  Li819  Li1+  0.767  0.767  0.100  0.000
  Li200  Li1+  0.033  0.833  0.500  0.000
  Li17  Li1+  0.167  0.100  0.367  0.000
  Li738  Li1+  0.767  0.367  0.300  0.000
  Li951  Li1+  0.900  0.367  0.167  0.000
  Li575  Li1+  0.567  0.500  0.767  0.000
  Li188  Li1+  0.167  0.900  0.167  0.000
  Li53  Li1+  0.167  0.300  0.167  0.000
  Li462  Li1+  0.433  0.100  0.233  0.000
  Li122  Li1+  0.100  0.433  0.633  0.000
  Li701  Li1+  0.767  0.100  0.567  0.000
  Li984  Li1+  0.833  0.300  0.833  0.000
  Li744  Li1+  0.700  0.367  0.567  0.000
  Li636  Li1+  0.500  0.967  0.167  0.000
  Li483  Li1+  0.500  0.167  0.767  0.000
  Li285  Li1+  0.300  0.367  0.367  0.000
  Li278  Li1+  0.367  0.300  0.167  0.000
  Li249  Li1+  0.300  0.167  0.567  0.000
  Li501  Li1+  0.500  0.367  0.167  0.000
  Li828  Li1+  0.767  0.767  0.300  0.000
  Li675  Li1+  0.567  0.967  0.900  0.000
  Li792  Li1+  0.767  0.567  0.500  0.000
  Li576  Li1+  0.567  0.567  0.700  0.000
  Li533  Li1+  0.433  0.233  0.900  0.000
  Li56  Li1+  0.033  0.233  0.300  0.000
  Li229  Li1+  0.250  0.050  0.050  0.000
  Li798  Li1+  0.700  0.567  0.767  0.000
  Li174  Li1+  0.033  0.700  0.833  0.000
  Li339  Li1+  0.300  0.567  0.567  0.000
  Li212  Li1+  0.100  0.833  0.633  0.000
  Li494  Li1+  0.567  0.100  0.967  0.000
  Li41  Li1+  0.100  0.033  0.833  0.000
  Li618  Li1+  0.500  0.767  0.767  0.000
  Li195  Li1+  0.100  0.967  0.367  0.000
  Li1066  Li1+  0.850  0.650  0.650  0.000
  Li646  Li1+  0.550  0.950  0.350  0.000
  Li1082  Li1+  0.833  0.833  0.100  0.000
  Li707  Li1+  0.700  0.033  0.633  0.000
  Li1035  Li1+  0.967  0.567  0.900  0.000
  Li962  Li1+  0.967  0.300  0.367  0.000
  Li5  Li1+  0.100  0.033  0.033  0.000
  Li312  Li1+  0.300  0.367  0.967  0.000
  Li833  Li1+  0.700  0.633  0.433  0.000
  Li206  Li1+  0.167  0.900  0.567  0.000
  Li815  Li1+  0.700  0.633  0.033  0.000
  Li905  Li1+  0.900  0.033  0.033  0.000
  Li42  Li1+  0.100  0.167  0.967  0.000
  Li902  Li1+  0.833  0.033  0.100  0.000
  Li375  Li1+  0.300  0.767  0.367  0.000
  Li161  Li1+  0.167  0.700  0.567  0.000
  Li506  Li1+  0.433  0.233  0.300  0.000
  Li933  Li1+  0.900  0.167  0.767  0.000
  Li372  Li1+  0.233  0.700  0.233  0.000
  Li680  Li1+  0.700  0.033  0.033  0.000
  Li390  Li1+  0.233  0.700  0.633  0.000
  Li491  Li1+  0.500  0.033  0.833  0.000
  Li1085  Li1+  0.900  0.833  0.033  0.000
  Li383  Li1+  0.300  0.633  0.433  0.000
  Li476  Li1+  0.567  0.100  0.567  0.000
  Li1053  Li1+  0.967  0.767  0.300  0.000
  Li74  Li1+  0.033  0.233  0.700  0.000
  Li295  Li1+  0.350  0.350  0.550  0.000
  Li735  Li1+  0.700  0.367  0.367  0.000
  Li281  Li1+  0.233  0.233  0.300  0.000
  Li669  Li1+  0.433  0.900  0.833  0.000
  Li1067  Li1+  0.900  0.633  0.633  0.000
  Li233  Li1+  0.367  0.100  0.167  0.000
  Li159  Li1+  0.100  0.767  0.567  0.000
  Li1023  Li1+  0.900  0.567  0.767  0.000
  Li399  Li1+  0.233  0.700  0.833  0.000
  Li518  Li1+  0.500  0.233  0.433  0.000
  Li582  Li1+  0.500  0.567  0.967  0.000
  Li563  Li1+  0.500  0.433  0.433  0.000
  Li560  Li1+  0.433  0.433  0.500  0.000
  Li1004  Li1+  0.900  0.433  0.233  0.000
  Li660  Li1+  0.433  0.900  0.633  0.000
  Li414  Li1+  0.367  0.967  0.100  0.000
  Li1014  Li1+  0.900  0.567  0.567  0.000
  Li464  Li1+  0.500  0.033  0.233  0.000
  Li1037  Li1+  0.833  0.633  0.100  0.000
  Li275  Li1+  0.300  0.233  0.033  0.000
  Li498  Li1+  0.433  0.300  0.033  0.000
  Li590  Li1+  0.500  0.633  0.033  0.000
  Li728  Li1+  0.767  0.300  0.167  0.000
  Li642  Li1+  0.433  0.900  0.233  0.000
  Li347  Li1+  0.300  0.433  0.633  0.000
  Li12  Li1+  0.033  0.100  0.233  0.000
  Li146  Li1+  0.033  0.633  0.300  0.000
  Li942  Li1+  0.900  0.167  0.967  0.000
  Li1040  Li1+  0.900  0.633  0.033  0.000
  Li825  Li1+  0.700  0.767  0.367  0.000
  Li1020  Li1+  0.833  0.500  0.633  0.000
  Li858  Li1+  0.633  0.900  0.033  0.000
  Li585  Li1+  0.567  0.567  0.900  0.000
  Li297  Li1+  0.367  0.367  0.500  0.000
  Li507  Li1+  0.433  0.300  0.233  0.000
  Li1076  Li1+  0.900  0.633  0.833  0.000
  Li1106  Li1+  0.967  0.900  0.567  0.000
  Li869  Li1+  0.700  0.833  0.233  0.000
  Li72  Li1+  0.167  0.367  0.500  0.000
  Li929  Li1+  0.833  0.033  0.700  0.000
  Li714  Li1+  0.633  0.100  0.833  0.000
  Li690  Li1+  0.700  0.167  0.367  0.000
  Li488  Li1+  0.433  0.033  0.900  0.000
  Li706  Li1+  0.650  0.050  0.650  0.000
  Li672  Li1+  0.500  0.967  0.967  0.000
  Li1031  Li1+  0.900  0.433  0.833  0.000
  Li419  Li1+  0.300  0.833  0.233  0.000
  Li960  Li1+  0.900  0.367  0.367  0.000
  Li1033  Li1+  0.950  0.550  0.950  0.000
  Li284  Li1+  0.300  0.233  0.233  0.000
  Li1095  Li1+  0.900  0.967  0.367  0.000
  Li1034  Li1+  0.967  0.500  0.967  0.000
  Li1070  Li1+  0.967  0.700  0.767  0.000
  Li882  Li1+  0.767  0.967  0.500  0.000
  Li438  Li1+  0.300  0.967  0.767  0.000
  Li89  Li1+  0.167  0.300  0.967  0.000
  Li36  Li1+  0.167  0.167  0.700  0.001
  Li1118  Li1+  0.833  0.833  0.900  0.001
  Li539  Li1+  0.567  0.300  0.967  0.001
  Li32  Li1+  0.100  0.033  0.633  0.001
  Li996  Li1+  0.900  0.567  0.167  0.001
  Li872  Li1+  0.767  0.900  0.367  0.001
  Li34  Li1+  0.150  0.150  0.750  0.001
  Li1058  Li1+  0.900  0.633  0.433  0.001
  Li978  Li1+  0.900  0.367  0.767  0.001
  Li15  Li1+  0.100  0.167  0.367  0.001
  Li258  Li1+  0.300  0.167  0.767  0.001
  Li764  Li1+  0.767  0.300  0.967  0.001
  Li492  Li1+  0.500  0.167  0.967  0.001
  Li248  Li1+  0.300  0.033  0.433  0.001
  Li1050  Li1+  0.900  0.767  0.367  0.001
  Li806  Li1+  0.700  0.433  0.833  0.001
  Li139  Li1+  0.050  0.650  0.050  0.001
  Li203  Li1+  0.100  0.833  0.433  0.001
  Li941  Li1+  0.900  0.033  0.833  0.001
  Li131  Li1+  0.100  0.433  0.833  0.001
  Li317  Li1+  0.233  0.433  0.100  0.001
  Li810  Li1+  0.767  0.567  0.900  0.001
  Li315  Li1+  0.367  0.367  0.900  0.001
  Li573  Li1+  0.500  0.567  0.767  0.001
  Li1032  Li1+  0.900  0.567  0.967  0.001
  Li51  Li1+  0.100  0.367  0.167  0.001
  Li948  Li1+  0.833  0.300  0.033  0.001
  Li381  Li1+  0.233  0.700  0.433  0.001
  Li1104  Li1+  0.900  0.967  0.567  0.001
  Li86  Li1+  0.100  0.233  0.833  0.001
  Li542  Li1+  0.433  0.433  0.100  0.001
  Li939  Li1+  0.833  0.100  0.833  0.001
  Li687  Li1+  0.633  0.100  0.233  0.001
  Li681  Li1+  0.700  0.167  0.167  0.001
  Li1115  Li1+  0.967  0.900  0.767  0.001
  Li1086  Li1+  0.900  0.967  0.167  0.001
  Li428  Li1+  0.300  0.833  0.433  0.001
  Li663  Li1+  0.500  0.967  0.767  0.001
  Li252  Li1+  0.367  0.167  0.500  0.001
  Li134  Li1+  0.167  0.500  0.967  0.001
  Li1112  Li1+  0.900  0.833  0.633  0.001
  Li630  Li1+  0.567  0.767  0.900  0.001
  Li437  Li1+  0.300  0.833  0.633  0.001
  Li888  Li1+  0.700  0.967  0.767  0.001
  Li374  Li1+  0.300  0.633  0.233  0.001
  Li564  Li1+  0.500  0.567  0.567  0.001
  Li635  Li1+  0.500  0.833  0.033  0.001
  Li932  Li1+  0.900  0.033  0.633  0.001
  Li747  Li1+  0.767  0.367  0.500  0.001
  Li774  Li1+  0.767  0.567  0.100  0.001
  Li836  Li1+  0.767  0.700  0.567  0.001
  Li330  Li1+  0.300  0.567  0.367  0.001
  Li133  Li1+  0.150  0.550  0.950  0.001
  Li69  Li1+  0.100  0.367  0.567  0.001
  Li311  Li1+  0.300  0.233  0.833  0.001
  Li38  Li1+  0.033  0.033  0.900  0.001
  Li497  Li1+  0.433  0.233  0.100  0.001
  Li222  Li1+  0.100  0.967  0.967  0.001
  Li831  Li1+  0.633  0.700  0.433  0.001
  Li413  Li1+  0.367  0.900  0.167  0.001
  Li615  Li1+  0.433  0.700  0.633  0.001
  Li482  Li1+  0.500  0.033  0.633  0.001
  Li609  Li1+  0.500  0.767  0.567  0.001
  Li338  Li1+  0.300  0.433  0.433  0.001
  Li633  Li1+  0.433  0.900  0.033  0.001
  Li665  Li1+  0.567  0.900  0.767  0.001
  Li1022  Li1+  0.900  0.433  0.633  0.001
  Li1038  Li1+  0.833  0.700  0.033  0.001
  Li239  Li1+  0.300  0.033  0.233  0.001
  Li516  Li1+  0.433  0.300  0.433  0.001
  Li458  Li1+  0.567  0.100  0.167  0.001
  Li155  Li1+  0.033  0.633  0.500  0.001
  Li449  Li1+  0.367  0.900  0.967  0.001
  Li852  Li1+  0.700  0.767  0.967  0.001
  Li627  Li1+  0.500  0.767  0.967  0.001
  Li408  Li1+  0.233  0.900  0.033  0.001
  Li1044  Li1+  0.967  0.767  0.100  0.001
  Li59  Li1+  0.100  0.233  0.233  0.001
  Li461  Li1+  0.433  0.033  0.300  0.001
  Li432  Li1+  0.367  0.967  0.500  0.001
  Li654  Li1+  0.500  0.967  0.567  0.001
  Li698  Li1+  0.700  0.033  0.433  0.001
  Li402  Li1+  0.300  0.767  0.967  0.001
  Li923  Li1+  0.900  0.033  0.433  0.001
  Li752  Li1+  0.700  0.233  0.633  0.001
  Li242  Li1+  0.367  0.100  0.367  0.001
  Li696  Li1+  0.633  0.100  0.433  0.001
  Li95  Li1+  0.100  0.433  0.033  0.001
  Li558  Li1+  0.567  0.567  0.300  0.001
  Li510  Li1+  0.500  0.367  0.367  0.001
  Li500  Li1+  0.500  0.233  0.033  0.001
  Li945  Li1+  0.967  0.167  0.900  0.001
  Li990  Li1+  0.967  0.367  0.900  0.001
  Li400  Li1+  0.250  0.650  0.850  0.001
  Li885  Li1+  0.633  0.900  0.633  0.001
  Li23  Li1+  0.100  0.033  0.433  0.001
  Li456  Li1+  0.500  0.167  0.167  0.001
  Li277  Li1+  0.350  0.350  0.150  0.001
  Li246  Li1+  0.233  0.100  0.433  0.001
  Li552  Li1+  0.433  0.500  0.233  0.001
  Li971  Li1+  0.967  0.300  0.567  0.001
  Li48  Li1+  0.033  0.300  0.033  0.001
  Li101  Li1+  0.033  0.433  0.300  0.001
  Li75  Li1+  0.033  0.300  0.633  0.001
  Li324  Li1+  0.367  0.567  0.100  0.001
  Li624  Li1+  0.433  0.700  0.833  0.001
  Li459  Li1+  0.567  0.167  0.100  0.001
  Li287  Li1+  0.367  0.300  0.367  0.001
  Li1098  Li1+  0.967  0.967  0.300  0.001
  Li743  Li1+  0.700  0.233  0.433  0.001
  Li693  Li1+  0.767  0.167  0.300  0.001
  Li705  Li1+  0.633  0.100  0.633  0.001
  Li96  Li1+  0.100  0.567  0.167  0.001
  Li900  Li1+  0.767  0.967  0.900  0.001
  Li767  Li1+  0.633  0.433  0.100  0.001
  Li870  Li1+  0.700  0.967  0.367  0.001
  Li579  Li1+  0.433  0.500  0.833  0.001
  Li1047  Li1+  0.833  0.700  0.233  0.001
  Li162  Li1+  0.167  0.767  0.500  0.001
  Li692  Li1+  0.767  0.100  0.367  0.001
  Li626  Li1+  0.500  0.633  0.833  0.001
  Li998  Li1+  0.967  0.500  0.167  0.001
  Li656  Li1+  0.567  0.900  0.567  0.001
  Li878  Li1+  0.700  0.833  0.433  0.001
  Li228  Li1+  0.233  0.100  0.033  0.001
  Li686  Li1+  0.633  0.033  0.300  0.001
  Li192  Li1+  0.033  0.900  0.233  0.001
  Li876  Li1+  0.633  0.900  0.433  0.001
  Li1059  Li1+  0.900  0.767  0.567  0.001
  Li643  Li1+  0.450  0.850  0.250  0.001
  Li378  Li1+  0.367  0.767  0.300  0.001
  Li953  Li1+  0.967  0.300  0.167  0.001
  Li1052  Li1+  0.967  0.700  0.367  0.001
  Li614  Li1+  0.433  0.633  0.700  0.001
  Li800  Li1+  0.767  0.500  0.767  0.001
  Li755  Li1+  0.767  0.300  0.767  0.001
  Li99  Li1+  0.167  0.567  0.100  0.001
  Li132  Li1+  0.100  0.567  0.967  0.001
  Li695  Li1+  0.633  0.033  0.500  0.001
  Li602  Li1+  0.567  0.700  0.367  0.001
  Li809  Li1+  0.767  0.500  0.967  0.001
  Li795  Li1+  0.633  0.500  0.633  0.001
  Li599  Li1+  0.500  0.633  0.233  0.001
  Li863  Li1+  0.767  0.900  0.167  0.001
  Li108  Li1+  0.167  0.567  0.300  0.001
  Li18  Li1+  0.167  0.167  0.300  0.001
  Li1002  Li1+  0.833  0.500  0.233  0.001
  Li177  Li1+  0.100  0.767  0.967  0.001
  Li741  Li1+  0.633  0.300  0.433  0.001
  Li813  Li1+  0.633  0.700  0.033  0.001
  Li276  Li1+  0.300  0.367  0.167  0.001
  Li270  Li1+  0.367  0.167  0.900  0.001
  Li382  Li1+  0.250  0.650  0.450  0.001
  Li365  Li1+  0.300  0.633  0.033  0.001
  Li977  Li1+  0.900  0.233  0.633  0.001
  Li650  Li1+  0.433  0.833  0.500  0.001
  Li527  Li1+  0.500  0.233  0.633  0.001
  Li384  Li1+  0.300  0.767  0.567  0.001
  Li282  Li1+  0.233  0.300  0.233  0.001
  Li189  Li1+  0.167  0.967  0.100  0.001
  Li753  Li1+  0.700  0.367  0.767  0.001
  Li213  Li1+  0.100  0.967  0.767  0.001
  Li279  Li1+  0.367  0.367  0.100  0.001
  Li6  Li1+  0.100  0.167  0.167  0.001
  Li584  Li1+  0.567  0.500  0.967  0.001
  Li830  Li1+  0.633  0.633  0.500  0.001
  Li591  Li1+  0.500  0.767  0.167  0.001
  Li704  Li1+  0.633  0.033  0.700  0.001
  Li230  Li1+  0.300  0.033  0.033  0.001
  Li332  Li1+  0.367  0.500  0.367  0.001
  Li639  Li1+  0.567  0.967  0.100  0.001
  Li1077  Li1+  0.900  0.767  0.967  0.001
  Li987  Li1+  0.900  0.367  0.967  0.001
  Li750  Li1+  0.633  0.300  0.633  0.001
  Li620  Li1+  0.567  0.700  0.767  0.001
  Li513  Li1+  0.567  0.367  0.300  0.001
  Li1071  Li1+  0.967  0.767  0.700  0.001
  Li263  Li1+  0.233  0.033  0.900  0.001
  Li474  Li1+  0.500  0.167  0.567  0.001
  Li126  Li1+  0.167  0.567  0.700  0.001
  Li726  Li1+  0.700  0.367  0.167  0.001
  Li546  Li1+  0.500  0.567  0.167  0.001
  Li677  Li1+  0.633  0.033  0.100  0.001
  Li1073  Li1+  0.833  0.633  0.900  0.001
  Li938  Li1+  0.833  0.033  0.900  0.001
  Li479  Li1+  0.433  0.033  0.700  0.001
  Li944  Li1+  0.967  0.100  0.967  0.001
  Li153  Li1+  0.167  0.767  0.300  0.001
  Li398  Li1+  0.233  0.633  0.900  0.001
  Li489  Li1+  0.433  0.100  0.833  0.001
  Li1043  Li1+  0.967  0.700  0.167  0.001
  Li843  Li1+  0.700  0.767  0.767  0.001
  Li926  Li1+  0.967  0.100  0.567  0.001
  Li645  Li1+  0.500  0.967  0.367  0.001
  Li632  Li1+  0.433  0.833  0.100  0.001
  Li314  Li1+  0.367  0.300  0.967  0.001
  Li123  Li1+  0.100  0.567  0.767  0.001
  Li702  Li1+  0.767  0.167  0.500  0.001
  Li965  Li1+  0.833  0.233  0.500  0.001
  Li178  Li1+  0.150  0.750  0.950  0.001
  Li897  Li1+  0.700  0.967  0.967  0.001
  Li525  Li1+  0.433  0.300  0.633  0.001
  Li180  Li1+  0.167  0.767  0.900  0.001
  Li477  Li1+  0.567  0.167  0.500  0.001
  Li731  Li1+  0.633  0.233  0.300  0.001
  Li580  Li1+  0.450  0.450  0.850  0.001
  Li995  Li1+  0.900  0.433  0.033  0.001
  Li648  Li1+  0.567  0.967  0.300  0.001
  Li236  Li1+  0.233  0.033  0.300  0.001
  Li117  Li1+  0.167  0.567  0.500  0.001
  Li471  Li1+  0.433  0.100  0.433  0.001
  Li959  Li1+  0.900  0.233  0.233  0.001
  Li1016  Li1+  0.967  0.500  0.567  0.001
  Li807  Li1+  0.700  0.567  0.967  0.001
  Li197  Li1+  0.167  0.900  0.367  0.001
  Li396  Li1+  0.367  0.767  0.700  0.001
  Li594  Li1+  0.567  0.767  0.100  0.001
  Li1116  Li1+  0.967  0.967  0.700  0.001
  Li881  Li1+  0.767  0.900  0.567  0.001
  Li921  Li1+  0.833  0.100  0.433  0.001
  Li1080  Li1+  0.967  0.767  0.900  0.001
  Li534  Li1+  0.433  0.300  0.833  0.001
  Li1122  Li1+  0.900  0.967  0.967  0.001
  Li689  Li1+  0.700  0.033  0.233  0.001
  Li30  Li1+  0.033  0.100  0.633  0.001
  Li854  Li1+  0.767  0.700  0.967  0.001
  Li420  Li1+  0.300  0.967  0.367  0.001
  Li33  Li1+  0.100  0.167  0.767  0.001
  Li377  Li1+  0.367  0.700  0.367  0.001
  Li1124  Li1+  0.967  0.900  0.967  0.001
  Li243  Li1+  0.367  0.167  0.300  0.001
  Li790  Li1+  0.750  0.550  0.550  0.001
  Li504  Li1+  0.567  0.367  0.100  0.001
  Li903  Li1+  0.833  0.100  0.033  0.001
  Li716  Li1+  0.700  0.033  0.833  0.001
  Li651  Li1+  0.433  0.900  0.433  0.001
  Li804  Li1+  0.633  0.500  0.833  0.001
  Li387  Li1+  0.367  0.767  0.500  0.001
  Li290  Li1+  0.233  0.233  0.500  0.001
  Li345  Li1+  0.233  0.500  0.633  0.001
  Li936  Li1+  0.967  0.167  0.700  0.001
  Li152  Li1+  0.167  0.700  0.367  0.001
  Li956  Li1+  0.833  0.233  0.300  0.001
  Li357  Li1+  0.300  0.567  0.967  0.001
  Li267  Li1+  0.300  0.167  0.967  0.001
  Li351  Li1+  0.367  0.567  0.700  0.001
  Li411  Li1+  0.300  0.967  0.167  0.001
  Li779  Li1+  0.700  0.433  0.233  0.001
  Li1088  Li1+  0.967  0.900  0.167  0.001
  Li758  Li1+  0.633  0.233  0.900  0.001
  Li431  Li1+  0.367  0.900  0.567  0.001
  Li920  Li1+  0.833  0.033  0.500  0.001
  Li495  Li1+  0.567  0.167  0.900  0.001
  Li288  Li1+  0.367  0.367  0.300  0.001
  Li138  Li1+  0.033  0.700  0.033  0.001
  Li756  Li1+  0.767  0.367  0.700  0.001
  Li549  Li1+  0.567  0.567  0.100  0.001
  Li327  Li1+  0.233  0.500  0.233  0.001
  Li110  Li1+  0.033  0.433  0.500  0.001
  Li323  Li1+  0.367  0.500  0.167  0.001
  Li822  Li1+  0.633  0.700  0.233  0.001
  Li1061  Li1+  0.967  0.700  0.567  0.001
  Li503  Li1+  0.567  0.300  0.167  0.001
  Li587  Li1+  0.433  0.633  0.100  0.001
  Li783  Li1+  0.767  0.567  0.300  0.001
  Li777  Li1+  0.633  0.500  0.233  0.001
  Li1068  Li1+  0.900  0.767  0.767  0.001
  Li699  Li1+  0.700  0.167  0.567  0.001
  Li537  Li1+  0.500  0.367  0.967  0.001
  Li1005  Li1+  0.900  0.567  0.367  0.001
  Li834  Li1+  0.700  0.767  0.567  0.001
  Li855  Li1+  0.767  0.767  0.900  0.001
  Li1065  Li1+  0.833  0.700  0.633  0.001
  Li545  Li1+  0.500  0.433  0.033  0.001
  Li125  Li1+  0.167  0.500  0.767  0.001
  Li452  Li1+  0.433  0.033  0.100  0.001
  Li422  Li1+  0.367  0.900  0.367  0.001
  Li318  Li1+  0.233  0.500  0.033  0.001
  Li368  Li1+  0.367  0.700  0.167  0.001
  Li842  Li1+  0.700  0.633  0.633  0.001
  Li879  Li1+  0.700  0.967  0.567  0.001
  Li521  Li1+  0.567  0.300  0.567  0.001
  Li773  Li1+  0.767  0.500  0.167  0.001
  Li569  Li1+  0.433  0.433  0.700  0.001
  Li827  Li1+  0.767  0.700  0.367  0.001
  Li740  Li1+  0.633  0.233  0.500  0.001
  Li1089  Li1+  0.967  0.967  0.100  0.001
  Li80  Li1+  0.167  0.300  0.767  0.001
  Li782  Li1+  0.767  0.500  0.367  0.001
  Li1039  Li1+  0.850  0.650  0.050  0.001
  Li1084  Li1+  0.850  0.850  0.050  0.001
  Li293  Li1+  0.300  0.233  0.433  0.001
  Li611  Li1+  0.567  0.700  0.567  0.001
  Li423  Li1+  0.367  0.967  0.300  0.001
  Li1056  Li1+  0.833  0.700  0.433  0.001
  Li269  Li1+  0.367  0.100  0.967  0.001
  Li60  Li1+  0.100  0.367  0.367  0.001
  Li168  Li1+  0.100  0.767  0.767  0.001
  Li875  Li1+  0.633  0.833  0.500  0.001
  Li1103  Li1+  0.900  0.833  0.433  0.001
  Li771  Li1+  0.700  0.567  0.167  0.001
  Li404  Li1+  0.367  0.700  0.967  0.001
  Li1025  Li1+  0.967  0.500  0.767  0.001
  Li791  Li1+  0.767  0.500  0.567  0.001
  Li957  Li1+  0.833  0.300  0.233  0.001
  Li581  Li1+  0.500  0.433  0.833  0.001
  Li914  Li1+  0.900  0.033  0.233  0.001
  Li87  Li1+  0.100  0.367  0.967  0.001
  Li729  Li1+  0.767  0.367  0.100  0.001
  Li722  Li1+  0.633  0.233  0.100  0.001
  Li968  Li1+  0.900  0.233  0.433  0.001
  Li1079  Li1+  0.967  0.700  0.967  0.001
  Li26  Li1+  0.167  0.100  0.567  0.001
  Li68  Li1+  0.100  0.233  0.433  0.001
  Li1029  Li1+  0.833  0.500  0.833  0.001
  Li918  Li1+  0.967  0.167  0.300  0.001
  Li401  Li1+  0.300  0.633  0.833  0.001
  Li567  Li1+  0.567  0.567  0.500  0.001
  Li674  Li1+  0.567  0.900  0.967  0.001
  Li156  Li1+  0.033  0.700  0.433  0.001
  Li762  Li1+  0.700  0.367  0.967  0.001
  Li111  Li1+  0.033  0.500  0.433  0.001
  Li354  Li1+  0.233  0.500  0.833  0.001
  Li231  Li1+  0.300  0.167  0.167  0.001
  Li455  Li1+  0.500  0.033  0.033  0.001
  Li737  Li1+  0.767  0.300  0.367  0.001
  Li629  Li1+  0.567  0.700  0.967  0.001
  Li1010  Li1+  0.833  0.433  0.500  0.001
  Li861  Li1+  0.700  0.967  0.167  0.001
  Li653  Li1+  0.500  0.833  0.433  0.001
  Li444  Li1+  0.233  0.900  0.833  0.001
  Li14  Li1+  0.100  0.033  0.233  0.001
  Li9  Li1+  0.167  0.167  0.100  0.001
  Li966  Li1+  0.833  0.300  0.433  0.001
  Li717  Li1+  0.700  0.167  0.967  0.001
  Li954  Li1+  0.967  0.367  0.100  0.001
  Li890  Li1+  0.767  0.900  0.767  0.001
  Li164  Li1+  0.033  0.633  0.700  0.001
  Li221  Li1+  0.100  0.833  0.833  0.001
  Li849  Li1+  0.633  0.700  0.833  0.001
  Li857  Li1+  0.633  0.833  0.100  0.001
  Li668  Li1+  0.433  0.833  0.900  0.001
  Li1017  Li1+  0.967  0.567  0.500  0.001
  Li135  Li1+  0.167  0.567  0.900  0.001
  Li93  Li1+  0.033  0.500  0.033  0.001
  Li20  Li1+  0.033  0.033  0.500  0.001
  Li465  Li1+  0.500  0.167  0.367  0.001
  Li720  Li1+  0.767  0.167  0.900  0.001
  Li49  Li1+  0.050  0.250  0.050  0.001
  Li147  Li1+  0.033  0.700  0.233  0.001
  Li264  Li1+  0.233  0.100  0.833  0.001
  Li294  Li1+  0.300  0.367  0.567  0.001
  Li113  Li1+  0.100  0.433  0.433  0.001
  Li974  Li1+  0.833  0.233  0.700  0.001
  Li440  Li1+  0.367  0.900  0.767  0.001
  Li81  Li1+  0.167  0.367  0.700  0.001
  Li410  Li1+  0.300  0.833  0.033  0.001
  Li1007  Li1+  0.967  0.500  0.367  0.001
  Li143  Li1+  0.167  0.700  0.167  0.001
  Li306  Li1+  0.367  0.367  0.700  0.001
  Li120  Li1+  0.033  0.500  0.633  0.001
  Li360  Li1+  0.367  0.567  0.900  0.001
  Li300  Li1+  0.233  0.300  0.633  0.001
  Li608  Li1+  0.500  0.633  0.433  0.001
  Li266  Li1+  0.300  0.033  0.833  0.001
  Li930  Li1+  0.833  0.100  0.633  0.001
  Li171  Li1+  0.167  0.767  0.700  0.001
  Li981  Li1+  0.967  0.367  0.700  0.001
  Li106  Li1+  0.150  0.550  0.350  0.001
  Li524  Li1+  0.433  0.233  0.700  0.001
  Li949  Li1+  0.850  0.250  0.050  0.001
  Li54  Li1+  0.167  0.367  0.100  0.001
  Li83  Li1+  0.033  0.233  0.900  0.001
  Li215  Li1+  0.167  0.900  0.767  0.001
  Li1109  Li1+  0.833  0.833  0.700  0.001
  Li776  Li1+  0.633  0.433  0.300  0.001
  Li362  Li1+  0.233  0.633  0.100  0.001
  Li538  Li1+  0.550  0.350  0.950  0.001
  Li27  Li1+  0.167  0.167  0.500  0.001
  Li66  Li1+  0.033  0.300  0.433  0.001
  Li88  Li1+  0.150  0.350  0.950  0.001
  Li57  Li1+  0.033  0.300  0.233  0.001
  Li92  Li1+  0.033  0.433  0.100  0.001
  Li1064  Li1+  0.833  0.633  0.700  0.001
  Li1074  Li1+  0.833  0.700  0.833  0.001
  Li891  Li1+  0.767  0.967  0.700  0.001
  Li426  Li1+  0.233  0.900  0.433  0.001
  Li1060  Li1+  0.950  0.750  0.550  0.001
  Li1083  Li1+  0.833  0.900  0.033  0.001
  Li691  Li1+  0.750  0.150  0.350  0.001
  Li335  Li1+  0.233  0.433  0.500  0.001
  Li1092  Li1+  0.833  0.900  0.233  0.001
  Li356  Li1+  0.300  0.433  0.833  0.001
  Li186  Li1+  0.100  0.967  0.167  0.001
  Li540  Li1+  0.567  0.367  0.900  0.001
  Li710  Li1+  0.767  0.100  0.767  0.001
  Li975  Li1+  0.833  0.300  0.633  0.001
  Li210  Li1+  0.033  0.900  0.633  0.001
  Li425  Li1+  0.233  0.833  0.500  0.001
  Li129  Li1+  0.033  0.500  0.833  0.001
  Li84  Li1+  0.033  0.300  0.833  0.001
  Li348  Li1+  0.300  0.567  0.767  0.001
  Li272  Li1+  0.233  0.233  0.100  0.001
  Li363  Li1+  0.233  0.700  0.033  0.001
  Li566  Li1+  0.567  0.500  0.567  0.001
  Li711  Li1+  0.767  0.167  0.700  0.001
  Li719  Li1+  0.767  0.100  0.967  0.001
  Li1091  Li1+  0.833  0.833  0.300  0.001
  Li596  Li1+  0.433  0.633  0.300  0.001
  Li296  Li1+  0.367  0.300  0.567  0.001
  Li194  Li1+  0.100  0.833  0.233  0.002
  Li896  Li1+  0.700  0.833  0.833  0.002
  Li927  Li1+  0.967  0.167  0.500  0.002
  Li305  Li1+  0.367  0.300  0.767  0.002
  Li530  Li1+  0.567  0.300  0.767  0.002
  Li141  Li1+  0.100  0.767  0.167  0.002
  Li77  Li1+  0.100  0.233  0.633  0.002
  Li917  Li1+  0.967  0.100  0.367  0.002
  Li260  Li1+  0.367  0.100  0.767  0.002
  Li105  Li1+  0.100  0.567  0.367  0.002
  Li780  Li1+  0.700  0.567  0.367  0.002
  Li257  Li1+  0.300  0.033  0.633  0.002
  Li671  Li1+  0.500  0.833  0.833  0.002
  Li623  Li1+  0.433  0.633  0.900  0.002
  Li950  Li1+  0.900  0.233  0.033  0.002
  Li158  Li1+  0.100  0.633  0.433  0.002
  Li683  Li1+  0.767  0.100  0.167  0.002
  Li803  Li1+  0.633  0.433  0.900  0.002
  Li1008  Li1+  0.967  0.567  0.300  0.002
  Li1006  Li1+  0.950  0.550  0.350  0.002
  Li265  Li1+  0.250  0.050  0.850  0.002
  Li475  Li1+  0.550  0.150  0.550  0.002
  Li207  Li1+  0.167  0.967  0.500  0.002
  Li1107  Li1+  0.967  0.967  0.500  0.002
  Li555  Li1+  0.500  0.567  0.367  0.002
  Li522  Li1+  0.567  0.367  0.500  0.002
  Li759  Li1+  0.633  0.300  0.833  0.002
  Li824  Li1+  0.700  0.633  0.233  0.002
  Li531  Li1+  0.567  0.367  0.700  0.002
  Li794  Li1+  0.633  0.433  0.700  0.002
  Li16  Li1+  0.150  0.150  0.350  0.002
  Li179  Li1+  0.167  0.700  0.967  0.002
  Li342  Li1+  0.367  0.567  0.500  0.002
  Li969  Li1+  0.900  0.367  0.567  0.002
  Li647  Li1+  0.567  0.900  0.367  0.002
  Li884  Li1+  0.633  0.833  0.700  0.002
  Li893  Li1+  0.633  0.833  0.900  0.002
  Li291  Li1+  0.233  0.300  0.433  0.002
  Li600  Li1+  0.500  0.767  0.367  0.002
  Li209  Li1+  0.033  0.833  0.700  0.002
  Li1046  Li1+  0.833  0.633  0.300  0.002
  Li198  Li1+  0.167  0.967  0.300  0.002
  Li561  Li1+  0.433  0.500  0.433  0.002
  Li218  Li1+  0.033  0.833  0.900  0.002
  Li818  Li1+  0.767  0.700  0.167  0.002
  Li393  Li1+  0.300  0.767  0.767  0.002
  Li746  Li1+  0.767  0.300  0.567  0.002
  Li908  Li1+  0.967  0.100  0.167  0.002
  Li593  Li1+  0.567  0.700  0.167  0.002
  Li245  Li1+  0.233  0.033  0.500  0.002
  Li606  Li1+  0.433  0.700  0.433  0.002
  Li662  Li1+  0.500  0.833  0.633  0.002
  Li812  Li1+  0.633  0.633  0.100  0.002
  Li508  Li1+  0.450  0.250  0.250  0.002
  Li176  Li1+  0.100  0.633  0.833  0.002
  Li989  Li1+  0.967  0.300  0.967  0.002
  Li745  Li1+  0.750  0.350  0.550  0.002
  Li846  Li1+  0.767  0.767  0.700  0.002
  Li191  Li1+  0.033  0.833  0.300  0.002
  Li308  Li1+  0.233  0.233  0.900  0.002
  Li1055  Li1+  0.833  0.633  0.500  0.002
  Li625  Li1+  0.450  0.650  0.850  0.002
  Li71  Li1+  0.167  0.300  0.567  0.002
  Li104  Li1+  0.100  0.433  0.233  0.002
  Li196  Li1+  0.150  0.950  0.350  0.002
  Li947  Li1+  0.833  0.233  0.100  0.002
  Li35  Li1+  0.167  0.100  0.767  0.002
  Li98  Li1+  0.167  0.500  0.167  0.002
  Li395  Li1+  0.367  0.700  0.767  0.002
  Li29  Li1+  0.033  0.033  0.700  0.002
  Li3  Li1+  0.033  0.100  0.033  0.002
  Li1001  Li1+  0.833  0.433  0.300  0.002
  Li621  Li1+  0.567  0.767  0.700  0.002
  Li65  Li1+  0.033  0.233  0.500  0.002
  Li90  Li1+  0.167  0.367  0.900  0.002
  Li528  Li1+  0.500  0.367  0.767  0.002
  Li341  Li1+  0.367  0.500  0.567  0.002
  Li299  Li1+  0.233  0.233  0.700  0.002
  Li864  Li1+  0.767  0.967  0.100  0.002
  Li201  Li1+  0.033  0.900  0.433  0.002
  Li468  Li1+  0.567  0.167  0.300  0.002
  Li789  Li1+  0.700  0.567  0.567  0.002
  Li785  Li1+  0.633  0.433  0.500  0.002
  Li873  Li1+  0.767  0.967  0.300  0.002
  Li234  Li1+  0.367  0.167  0.100  0.002
  Li417  Li1+  0.233  0.900  0.233  0.002
  Li128  Li1+  0.033  0.433  0.900  0.002
  Li45  Li1+  0.167  0.167  0.900  0.002
  Li867  Li1+  0.633  0.900  0.233  0.002
  Li578  Li1+  0.433  0.433  0.900  0.002
  Li934  Li1+  0.950  0.150  0.750  0.002
  Li713  Li1+  0.633  0.033  0.900  0.002
  Li980  Li1+  0.967  0.300  0.767  0.002
  Li610  Li1+  0.550  0.750  0.550  0.002
  Li617  Li1+  0.500  0.633  0.633  0.002
  Li227  Li1+  0.233  0.033  0.100  0.002
  Li725  Li1+  0.700  0.233  0.033  0.002
  Li1013  Li1+  0.900  0.433  0.433  0.002
  Li8  Li1+  0.167  0.100  0.167  0.002
  Li935  Li1+  0.967  0.100  0.767  0.002
  Li727  Li1+  0.750  0.350  0.150  0.002
  Li185  Li1+  0.100  0.833  0.033  0.002
  Li62  Li1+  0.167  0.300  0.367  0.002
  Li182  Li1+  0.033  0.833  0.100  0.002
  Li666  Li1+  0.567  0.967  0.700  0.002
  Li353  Li1+  0.233  0.433  0.900  0.002
  Li801  Li1+  0.767  0.567  0.700  0.002
  Li119  Li1+  0.033  0.433  0.700  0.002
  Li1028  Li1+  0.833  0.433  0.900  0.002
  Li63  Li1+  0.167  0.367  0.300  0.002
  Li763  Li1+  0.750  0.350  0.950  0.002
  Li450  Li1+  0.367  0.967  0.900  0.002
  Li723  Li1+  0.633  0.300  0.033  0.002
  Li983  Li1+  0.833  0.233  0.900  0.002
  Li183  Li1+  0.033  0.900  0.033  0.002
  Li678  Li1+  0.633  0.100  0.033  0.002
  Li906  Li1+  0.900  0.167  0.167  0.002
  Li1113  Li1+  0.900  0.967  0.767  0.002
  Li336  Li1+  0.233  0.500  0.433  0.002
  Li173  Li1+  0.033  0.633  0.900  0.002
  Li1101  Li1+  0.833  0.900  0.433  0.002
  Li840  Li1+  0.633  0.700  0.633  0.002
  Li225  Li1+  0.167  0.967  0.900  0.002
  Li517  Li1+  0.450  0.250  0.450  0.002
  Li366  Li1+  0.300  0.767  0.167  0.002
  Li303  Li1+  0.300  0.367  0.767  0.002
  Li988  Li1+  0.950  0.350  0.950  0.002
  Li1100  Li1+  0.833  0.833  0.500  0.002
  Li273  Li1+  0.233  0.300  0.033  0.002
  Li961  Li1+  0.950  0.350  0.350  0.002
  Li24  Li1+  0.100  0.167  0.567  0.002
  Li1119  Li1+  0.833  0.900  0.833  0.002
  Li446  Li1+  0.300  0.833  0.833  0.002
  Li405  Li1+  0.367  0.767  0.900  0.002
  Li509  Li1+  0.500  0.233  0.233  0.002
  Li371  Li1+  0.233  0.633  0.300  0.002
  Li480  Li1+  0.433  0.100  0.633  0.002
  Li144  Li1+  0.167  0.767  0.100  0.002
  Li47  Li1+  0.033  0.233  0.100  0.002
  Li570  Li1+  0.433  0.500  0.633  0.002
  Li554  Li1+  0.500  0.433  0.233  0.002
  Li786  Li1+  0.633  0.500  0.433  0.002
  Li137  Li1+  0.033  0.633  0.100  0.002
  Li407  Li1+  0.233  0.833  0.100  0.002
  Li543  Li1+  0.433  0.500  0.033  0.002
  Li369  Li1+  0.367  0.767  0.100  0.002
  Li216  Li1+  0.167  0.967  0.700  0.002
  Li565  Li1+  0.550  0.550  0.550  0.002
  Li588  Li1+  0.433  0.700  0.033  0.002
  Li261  Li1+  0.367  0.167  0.700  0.002
  Li435  Li1+  0.233  0.900  0.633  0.002
  Li251  Li1+  0.367  0.100  0.567  0.002
  Li844  Li1+  0.750  0.750  0.750  0.002
  Li434  Li1+  0.233  0.833  0.700  0.002
  Li765  Li1+  0.767  0.367  0.900  0.002
  Li320  Li1+  0.300  0.433  0.033  0.002
  Li350  Li1+  0.367  0.500  0.767  0.002
  Li333  Li1+  0.367  0.567  0.300  0.002
  Li605  Li1+  0.433  0.633  0.500  0.002
  Li470  Li1+  0.433  0.033  0.500  0.003
  Li520  Li1+  0.550  0.350  0.550  0.003
  Li899  Li1+  0.767  0.900  0.967  0.003
  Li309  Li1+  0.233  0.300  0.833  0.003
  Li661  Li1+  0.450  0.850  0.650  0.003
  Li193  Li1+  0.050  0.850  0.250  0.003
  Li761  Li1+  0.700  0.233  0.833  0.003
  Li254  Li1+  0.233  0.033  0.700  0.003
  Li837  Li1+  0.767  0.767  0.500  0.003
  Li515  Li1+  0.433  0.233  0.500  0.003
  Li963  Li1+  0.967  0.367  0.300  0.003
  Li78  Li1+  0.100  0.367  0.767  0.003
  Li808  Li1+  0.750  0.550  0.950  0.003
  Li999  Li1+  0.967  0.567  0.100  0.003
  Li972  Li1+  0.967  0.367  0.500  0.003
  Li380  Li1+  0.233  0.633  0.500  0.003
  Li44  Li1+  0.167  0.100  0.967  0.003
  Li657  Li1+  0.567  0.967  0.500  0.003
  Li453  Li1+  0.433  0.100  0.033  0.003
  Li445  Li1+  0.250  0.850  0.850  0.003
  Li985  Li1+  0.850  0.250  0.850  0.003
  Li551  Li1+  0.433  0.433  0.300  0.003
  Li166  Li1+  0.050  0.650  0.650  0.003
  Li409  Li1+  0.250  0.850  0.050  0.003
  Li170  Li1+  0.167  0.700  0.767  0.003
  Li638  Li1+  0.567  0.900  0.167  0.003
  Li915  Li1+  0.900  0.167  0.367  0.003
  Li441  Li1+  0.367  0.967  0.700  0.003
  Li151  Li1+  0.150  0.750  0.350  0.003
  Li839  Li1+  0.633  0.633  0.700  0.003
  Li2  Li1+  0.033  0.033  0.100  0.003
  Li1125  Li1+  0.967  0.967  0.900  0.003
  Li851  Li1+  0.700  0.633  0.833  0.003
  Li1019  Li1+  0.833  0.433  0.700  0.003
  Li845  Li1+  0.767  0.700  0.767  0.003
  Li58  Li1+  0.050  0.250  0.250  0.003
  Li821  Li1+  0.633  0.633  0.300  0.003
  Li1011  Li1+  0.833  0.500  0.433  0.003
  Li1069  Li1+  0.950  0.750  0.750  0.003
  Li848  Li1+  0.633  0.633  0.900  0.003
  Li911  Li1+  0.833  0.033  0.300  0.003
  Li673  Li1+  0.550  0.950  0.950  0.003
  Li11  Li1+  0.033  0.033  0.300  0.003
  Li443  Li1+  0.233  0.833  0.900  0.003
  Li993  Li1+  0.833  0.500  0.033  0.003
  Li749  Li1+  0.633  0.233  0.700  0.003
  Li688  Li1+  0.650  0.050  0.250  0.003
  Li102  Li1+  0.033  0.500  0.233  0.003
  Li349  Li1+  0.350  0.550  0.750  0.003
  Li237  Li1+  0.233  0.100  0.233  0.003
  Li224  Li1+  0.167  0.900  0.967  0.003
  Li85  Li1+  0.050  0.250  0.850  0.003
  Li448  Li1+  0.350  0.950  0.950  0.003
  Li40  Li1+  0.050  0.050  0.850  0.003
  Li1062  Li1+  0.967  0.767  0.500  0.003
  Li463  Li1+  0.450  0.050  0.250  0.003
  Li490  Li1+  0.450  0.050  0.850  0.003
  Li684  Li1+  0.767  0.167  0.100  0.003
  Li232  Li1+  0.350  0.150  0.150  0.003
  Li472  Li1+  0.450  0.050  0.450  0.003
  Li603  Li1+  0.567  0.767  0.300  0.003
  Li304  Li1+  0.350  0.350  0.750  0.004
  Li526  Li1+  0.450  0.250  0.650  0.004
  Li931  Li1+  0.850  0.050  0.650  0.004
  Li389  Li1+  0.233  0.633  0.700  0.004
  Li970  Li1+  0.950  0.350  0.550  0.004
  Li909  Li1+  0.967  0.167  0.100  0.004
  Li418  Li1+  0.250  0.850  0.250  0.004
  Li574  Li1+  0.550  0.550  0.750  0.004
  Li484  Li1+  0.550  0.150  0.750  0.004
  Li328  Li1+  0.250  0.450  0.250  0.004
  Li943  Li1+  0.950  0.150  0.950  0.004
  Li283  Li1+  0.250  0.250  0.250  0.004
  Li562  Li1+  0.450  0.450  0.450  0.004
  Li992  Li1+  0.833  0.433  0.100  0.004
  Li886  Li1+  0.650  0.850  0.650  0.004
  Li512  Li1+  0.567  0.300  0.367  0.004
  Li1105  Li1+  0.950  0.950  0.550  0.004
  Li709  Li1+  0.750  0.150  0.750  0.004
  Li340  Li1+  0.350  0.550  0.550  0.004
  Li223  Li1+  0.150  0.950  0.950  0.004
  Li1041  Li1+  0.900  0.767  0.167  0.004
  Li346  Li1+  0.250  0.450  0.650  0.004
  Li805  Li1+  0.650  0.450  0.850  0.004
  Li486  Li1+  0.567  0.167  0.700  0.005
  Li202  Li1+  0.050  0.850  0.450  0.005
  Li601  Li1+  0.550  0.750  0.350  0.005
  Li457  Li1+  0.550  0.150  0.150  0.005
  Li255  Li1+  0.233  0.100  0.633  0.005
  Li868  Li1+  0.650  0.850  0.250  0.005
  Li454  Li1+  0.450  0.050  0.050  0.005
  Li1087  Li1+  0.950  0.950  0.150  0.005
  Li322  Li1+  0.350  0.550  0.150  0.005
  Li286  Li1+  0.350  0.350  0.350  0.005
  Li616  Li1+  0.450  0.650  0.650  0.005
  Li907  Li1+  0.950  0.150  0.150  0.006
  Li718  Li1+  0.750  0.150  0.950  0.006
  Li912  Li1+  0.833  0.100  0.233  0.006
  Li301  Li1+  0.250  0.250  0.650  0.006
  Li880  Li1+  0.750  0.950  0.550  0.006
  Li664  Li1+  0.550  0.950  0.750  0.006
  Li597  Li1+  0.433  0.700  0.233  0.006
  Li637  Li1+  0.550  0.950  0.150  0.006
  Li826  Li1+  0.750  0.750  0.350  0.006
  Li427  Li1+  0.250  0.850  0.450  0.006
  Li403  Li1+  0.350  0.750  0.950  0.007
  Li700  Li1+  0.750  0.150  0.550  0.007
  Li850  Li1+  0.650  0.650  0.850  0.007
  Li502  Li1+  0.550  0.350  0.150  0.007
  Li1111  Li1+  0.850  0.850  0.650  0.007
  Li751  Li1+  0.650  0.250  0.650  0.007
  Li634  Li1+  0.450  0.850  0.050  0.007
  Li976  Li1+  0.850  0.250  0.650  0.007
  Li715  Li1+  0.650  0.050  0.850  0.007
  Li94  Li1+  0.050  0.450  0.050  0.008
  Li157  Li1+  0.050  0.650  0.450  0.008
  Li952  Li1+  0.950  0.350  0.150  0.008
  Li7  Li1+  0.150  0.150  0.150  0.008
  Li313  Li1+  0.350  0.350  0.950  0.008
  Li1075  Li1+  0.850  0.650  0.850  0.008
  Li310  Li1+  0.250  0.250  0.850  0.008
  Li799  Li1+  0.750  0.550  0.750  0.008
  Li1024  Li1+  0.950  0.550  0.750  0.008
  Li547  Li1+  0.550  0.550  0.150  0.008
  Li754  Li1+  0.750  0.350  0.750  0.009
  Li376  Li1+  0.350  0.750  0.350  0.009
  Li439  Li1+  0.350  0.950  0.750  0.009
  Li214  Li1+  0.150  0.950  0.750  0.009
  Li259  Li1+  0.350  0.150  0.750  0.009
  Li772  Li1+  0.750  0.550  0.150  0.009
  Li796  Li1+  0.650  0.450  0.650  0.009
  Li394  Li1+  0.350  0.750  0.750  0.009
  Li241  Li1+  0.350  0.150  0.350  0.009
  Li1120  Li1+  0.850  0.850  0.850  0.009
  Li1030  Li1+  0.850  0.450  0.850  0.010
  Li219  Li1+  0.033  0.900  0.833  0.010
  Li859  Li1+  0.650  0.850  0.050  0.011
  Li184  Li1+  0.050  0.850  0.050  0.011
  Li1003  Li1+  0.850  0.450  0.250  0.011
  Li787  Li1+  0.650  0.450  0.450  0.011
  Li466  Li1+  0.550  0.150  0.350  0.011
  Li535  Li1+  0.450  0.250  0.850  0.011
  Li592  Li1+  0.550  0.750  0.150  0.011
  Li841  Li1+  0.650  0.650  0.650  0.011
  Li22  Li1+  0.050  0.050  0.450  0.012
  Li250  Li1+  0.350  0.150  0.550  0.012
  Li292  Li1+  0.250  0.250  0.450  0.012
  Li589  Li1+  0.450  0.650  0.050  0.012
  Li889  Li1+  0.750  0.950  0.750  0.012
  Li130  Li1+  0.050  0.450  0.850  0.012
  Li877  Li1+  0.650  0.850  0.450  0.012
  Li13  Li1+  0.050  0.050  0.250  0.012
  Li994  Li1+  0.850  0.450  0.050  0.013
  Li925  Li1+  0.950  0.150  0.550  0.013
  Li553  Li1+  0.450  0.450  0.250  0.013
  Li211  Li1+  0.050  0.850  0.650  0.013
  Li628  Li1+  0.550  0.750  0.950  0.014
  Li895  Li1+  0.650  0.850  0.850  0.014
  Li922  Li1+  0.850  0.050  0.450  0.014
  Li871  Li1+  0.750  0.950  0.350  0.015
  Li1015  Li1+  0.950  0.550  0.550  0.015
  Li619  Li1+  0.550  0.750  0.750  0.015
  Li583  Li1+  0.550  0.550  0.950  0.015
  Li247  Li1+  0.250  0.050  0.450  0.015
  Li1021  Li1+  0.850  0.450  0.650  0.016
  Li736  Li1+  0.750  0.350  0.350  0.016
  Li481  Li1+  0.450  0.050  0.650  0.017
  Li778  Li1+  0.650  0.450  0.250  0.017
  Li853  Li1+  0.750  0.750  0.950  0.017
  Li607  Li1+  0.450  0.650  0.450  0.018
  Li511  Li1+  0.550  0.350  0.350  0.018
  Li655  Li1+  0.550  0.950  0.550  0.019
  Li913  Li1+  0.850  0.050  0.250  0.019
  Li781  Li1+  0.750  0.550  0.350  0.019
  Li1048  Li1+  0.850  0.650  0.250  0.019
  Li835  Li1+  0.750  0.750  0.550  0.020
  Li733  Li1+  0.650  0.250  0.250  0.020
  Li697  Li1+  0.650  0.050  0.450  0.020
  Li760  Li1+  0.650  0.250  0.850  0.021
  Li571  Li1+  0.450  0.450  0.650  0.021
  Li169  Li1+  0.150  0.750  0.750  0.021
  Li862  Li1+  0.750  0.950  0.150  0.022
  Li373  Li1+  0.250  0.650  0.250  0.022
  Li997  Li1+  0.950  0.550  0.150  0.023
  Li1123  Li1+  0.950  0.950  0.950  0.023
  Li76  Li1+  0.050  0.250  0.650  0.024
  Li979  Li1+  0.950  0.350  0.750  0.024
  Li52  Li1+  0.150  0.350  0.150  0.025
  Li493  Li1+  0.550  0.150  0.950  0.025
  Li25  Li1+  0.150  0.150  0.550  0.025
  Li940  Li1+  0.850  0.050  0.850  0.026
  Li817  Li1+  0.750  0.750  0.150  0.026
  Li124  Li1+  0.150  0.550  0.750  0.027
  Li529  Li1+  0.550  0.350  0.750  0.028
  Li364  Li1+  0.250  0.650  0.050  0.029
  Li682  Li1+  0.750  0.150  0.150  0.030
  Li79  Li1+  0.150  0.350  0.750  0.031
  Li331  Li1+  0.350  0.550  0.350  0.032
  Li175  Li1+  0.050  0.650  0.850  0.032
  Li103  Li1+  0.050  0.450  0.250  0.032
  Li187  Li1+  0.150  0.950  0.150  0.034
  Li1057  Li1+  0.850  0.650  0.450  0.035
  Li436  Li1+  0.250  0.850  0.650  0.038
  Li1051  Li1+  0.950  0.750  0.350  0.039
  Li598  Li1+  0.450  0.650  0.250  0.040
  Li367  Li1+  0.350  0.750  0.150  0.042
  Li898  Li1+  0.750  0.950  0.950  0.043
  Li391  Li1+  0.250  0.650  0.650  0.045
  Li238  Li1+  0.250  0.050  0.250  0.047
  Li814  Li1+  0.650  0.650  0.050  0.049
  Li1114  Li1+  0.950  0.950  0.750  0.052
  Li544  Li1+  0.450  0.450  0.050  0.053
  Li67  Li1+  0.050  0.250  0.450  0.059
  Li4  Li1+  0.050  0.050  0.050  0.063
  Li355  Li1+  0.250  0.450  0.850  0.064
  Li121  Li1+  0.050  0.450  0.650  0.064
  Li967  Li1+  0.850  0.250  0.450  0.064
  Li904  Li1+  0.850  0.050  0.050  0.071
  Li679  Li1+  0.650  0.050  0.050  0.073
  Li31  Li1+  0.050  0.050  0.650  0.074
  Li274  Li1+  0.250  0.250  0.050  0.077
  Li61  Li1+  0.150  0.350  0.350  0.082
  Li220  Li1+  0.050  0.850  0.850  0.087
  Li1042  Li1+  0.950  0.750  0.150  0.088
  Li1102  Li1+  0.850  0.850  0.450  0.098
  Li823  Li1+  0.650  0.650  0.250  0.104
  Li142  Li1+  0.150  0.750  0.150  0.131
  Li319  Li1+  0.250  0.450  0.050  0.150
  Li1012  Li1+  0.850  0.450  0.450  0.152
  Li916  Li1+  0.950  0.150  0.350  0.167
  Li724  Li1+  0.650  0.250  0.050  0.174
  Li256  Li1+  0.250  0.050  0.650  0.247
  Li559  Li1+  0.400  0.400  0.400  0.711
  Li712  Li1+  0.600  0.000  0.800  0.761
  Li892  Li1+  0.600  0.800  0.800  0.790
  Li874  Li1+  0.600  0.800  0.400  0.798
  Li1000  Li1+  0.800  0.400  0.200  0.818
  Li361  Li1+  0.200  0.600  0.000  0.833
  Li1045  Li1+  0.800  0.600  0.200  0.845
  Li1036  Li1+  0.800  0.600  0.000  0.849
  Li883  Li1+  0.600  0.800  0.600  0.852
  Li811  Li1+  0.600  0.600  0.000  0.877
  Li1108  Li1+  0.800  0.800  0.600  0.877
  Li91  Li1+  0.000  0.400  0.000  0.883
  Li316  Li1+  0.200  0.400  0.000  0.883
  Li667  Li1+  0.400  0.800  0.800  0.902
  Li991  Li1+  0.800  0.400  0.000  0.905
  Li784  Li1+  0.600  0.400  0.400  0.908
  Li127  Li1+  0.000  0.400  0.800  0.917
  Li694  Li1+  0.600  0.000  0.400  0.920
  Li685  Li1+  0.600  0.000  0.200  0.925
  Li856  Li1+  0.600  0.800  0.000  0.926
  Li433  Li1+  0.200  0.800  0.600  0.927
  Li487  Li1+  0.400  0.000  0.800  0.937
  Li847  Li1+  0.600  0.600  0.800  0.939
  Li514  Li1+  0.400  0.200  0.400  0.942
  Li1009  Li1+  0.800  0.400  0.400  0.942
  Li1054  Li1+  0.800  0.600  0.400  0.948
  Li442  Li1+  0.200  0.800  0.800  0.949
  Li226  Li1+  0.200  0.000  0.000  0.952
  Li1063  Li1+  0.800  0.600  0.600  0.952
  Li658  Li1+  0.400  0.800  0.600  0.958
  Li37  Li1+  0.000  0.000  0.800  0.959
  Li1072  Li1+  0.800  0.600  0.800  0.962
  Li136  Li1+  0.000  0.600  0.000  0.963
  Li919  Li1+  0.800  0.000  0.400  0.965
  Li73  Li1+  0.000  0.200  0.600  0.965
  Li415  Li1+  0.200  0.800  0.200  0.966
  Li550  Li1+  0.400  0.400  0.200  0.967
  Li55  Li1+  0.000  0.200  0.200  0.967
  Li532  Li1+  0.400  0.200  0.800  0.969
  Li325  Li1+  0.200  0.400  0.200  0.969
  Li730  Li1+  0.600  0.200  0.200  0.969
  Li397  Li1+  0.200  0.600  0.800  0.971
  Li721  Li1+  0.600  0.200  0.000  0.972
  Li352  Li1+  0.200  0.400  0.800  0.972
  Li937  Li1+  0.800  0.000  0.800  0.973
  Li676  Li1+  0.600  0.000  0.000  0.973
  Li865  Li1+  0.600  0.800  0.200  0.973
  Li631  Li1+  0.400  0.800  0.000  0.973
  Li703  Li1+  0.600  0.000  0.600  0.973
  Li10  Li1+  0.000  0.000  0.200  0.973
  Li910  Li1+  0.800  0.000  0.200  0.974
  Li523  Li1+  0.400  0.200  0.600  0.975
  Li262  Li1+  0.200  0.000  0.800  0.975
  Li172  Li1+  0.000  0.600  0.800  0.976
  Li1081  Li1+  0.800  0.800  0.000  0.976
  Li802  Li1+  0.600  0.400  0.800  0.976
  Li964  Li1+  0.800  0.200  0.400  0.977
  Li190  Li1+  0.000  0.800  0.200  0.977
  Li613  Li1+  0.400  0.600  0.600  0.977
  Li1  Li1+  0.000  0.000  0.000  0.978
  Li253  Li1+  0.200  0.000  0.600  0.978
  Li163  Li1+  0.000  0.600  0.600  0.979
  Li1099  Li1+  0.800  0.800  0.400  0.979
  Li100  Li1+  0.000  0.400  0.200  0.979
  Li1027  Li1+  0.800  0.400  0.800  0.980
  Li568  Li1+  0.400  0.400  0.600  0.980
  Li973  Li1+  0.800  0.200  0.600  0.980
  Li244  Li1+  0.200  0.000  0.400  0.980
  Li109  Li1+  0.000  0.400  0.400  0.980
  Li235  Li1+  0.200  0.000  0.200  0.981
  Li739  Li1+  0.600  0.200  0.400  0.982
  Li280  Li1+  0.200  0.200  0.200  0.982
  Li820  Li1+  0.600  0.600  0.200  0.982
  Li199  Li1+  0.000  0.800  0.400  0.982
  Li901  Li1+  0.800  0.000  0.000  0.982
  Li298  Li1+  0.200  0.200  0.600  0.982
  Li793  Li1+  0.600  0.400  0.600  0.982
  Li406  Li1+  0.200  0.800  0.000  0.982
  Li208  Li1+  0.000  0.800  0.600  0.982
  Li145  Li1+  0.000  0.600  0.200  0.983
  Li604  Li1+  0.400  0.600  0.400  0.983
  Li748  Li1+  0.600  0.200  0.600  0.983
  Li478  Li1+  0.400  0.000  0.600  0.983
  Li289  Li1+  0.200  0.200  0.400  0.983
  Li775  Li1+  0.600  0.400  0.200  0.983
  Li46  Li1+  0.000  0.200  0.000  0.985
  Li757  Li1+  0.600  0.200  0.800  0.985
  Li649  Li1+  0.400  0.800  0.400  0.985
  Li955  Li1+  0.800  0.200  0.200  0.985
  Li307  Li1+  0.200  0.200  0.800  0.985
  Li1117  Li1+  0.800  0.800  0.800  0.985
  Li541  Li1+  0.400  0.400  0.000  0.985
  Li946  Li1+  0.800  0.200  0.000  0.986
  Li154  Li1+  0.000  0.600  0.400  0.986
  Li640  Li1+  0.400  0.800  0.200  0.986
  Li1018  Li1+  0.800  0.400  0.600  0.986
  Li577  Li1+  0.400  0.400  0.800  0.986
  Li64  Li1+  0.000  0.200  0.400  0.986
  Li595  Li1+  0.400  0.600  0.200  0.986
  Li19  Li1+  0.000  0.000  0.400  0.987
  Li28  Li1+  0.000  0.000  0.600  0.987
  Li451  Li1+  0.400  0.000  0.000  0.987
  Li928  Li1+  0.800  0.000  0.600  0.987
  Li982  Li1+  0.800  0.200  0.800  0.987
  Li424  Li1+  0.200  0.800  0.400  0.988
  Li334  Li1+  0.200  0.400  0.400  0.988
  Li622  Li1+  0.400  0.600  0.800  0.989
  Li586  Li1+  0.400  0.600  0.000  0.989
  Li829  Li1+  0.600  0.600  0.400  0.989
  Li838  Li1+  0.600  0.600  0.600  0.989
  Li379  Li1+  0.200  0.600  0.400  0.989
  Li343  Li1+  0.200  0.400  0.600  0.990
  Li118  Li1+  0.000  0.400  0.600  0.990
  Li496  Li1+  0.400  0.200  0.000  0.990
  Li1090  Li1+  0.800  0.800  0.200  0.992
  Li82  Li1+  0.000  0.200  0.800  0.992
  Li766  Li1+  0.600  0.400  0.000  0.992
  Li271  Li1+  0.200  0.200  0.000  0.992
  Li469  Li1+  0.400  0.000  0.400  0.993
  Li181  Li1+  0.000  0.800  0.000  0.994
  Li388  Li1+  0.200  0.600  0.600  0.994
  Li460  Li1+  0.400  0.000  0.200  0.994
  Li217  Li1+  0.000  0.800  0.800  0.994
  Li370  Li1+  0.200  0.600  0.200  0.994
  Li505  Li1+  0.400  0.200  0.200  0.994

#end of data
