data_generated-by-softBV

_chemical_name_systematic         'Li1+:22.000 S2-:11.000 '
_cell_length_a                    19.982
_cell_length_b                    19.982
_cell_length_c                    223.317
_cell_angle_alpha                 60.518
_cell_angle_beta                  60.518
_cell_angle_gamma                 59.995
_cell_volume                      63535.544
_cell_formula_units_Z             0
_symmetry_space_group_name_H-M    'P 1'
_symmetry_Int_Tables_number       1

loop_
  _symmetry_equiv_pos_site_id
  _symmetry_equiv_pos_as_xyz
    1    'x, y, z'

loop_
  _atom_type_symbol
  _atom_type_oxidation_number
  Li1+     1
  S2-     -2

loop_
  _atom_site_label
  _atom_site_type_symbol
  _atom_site_fract_x
  _atom_site_fract_y
  _atom_site_fract_z
  _atom_site_occupancy
  Li22  Li1+  0.004  0.129  0.031  0.000
  Li24  Li1+  0.004  0.133  0.139  0.000
  Li35  Li1+  0.008  0.129  0.194  0.000
  Li39  Li1+  0.067  0.067  0.000  0.000
  Li41  Li1+  0.067  0.196  0.152  0.000
  Li42  Li1+  0.067  0.192  0.189  0.000
  Li43  Li1+  0.129  0.004  0.031  0.000
  Li61  Li1+  0.196  0.067  0.352  0.000
  Li63  Li1+  0.100  0.100  0.391  0.000
  Li87  Li1+  0.067  0.067  0.200  0.000
  Li91  Li1+  0.129  0.004  0.231  0.000
  Li93  Li1+  0.133  0.004  0.339  0.000
  Li94  Li1+  0.133  0.004  0.375  0.000
  Li96  Li1+  0.192  0.067  0.389  0.000
  Li115  Li1+  0.100  0.100  0.536  0.000
  Li118  Li1+  0.004  0.129  0.431  0.000
  Li120  Li1+  0.004  0.133  0.539  0.000
  Li121  Li1+  0.004  0.133  0.575  0.000
  Li137  Li1+  0.067  0.196  0.552  0.000
  Li138  Li1+  0.067  0.192  0.589  0.000
  Li140  Li1+  0.129  0.129  0.419  0.000
  Li142  Li1+  0.133  0.004  0.575  0.000
  Li143  Li1+  0.129  0.008  0.594  0.000
  Li157  Li1+  0.196  0.067  0.752  0.000
  Li166  Li1+  0.004  0.129  0.631  0.000
  Li168  Li1+  0.004  0.133  0.739  0.000
  Li179  Li1+  0.008  0.129  0.794  0.000
  Li183  Li1+  0.067  0.067  0.600  0.000
  Li184  Li1+  0.067  0.067  0.636  0.000
  Li185  Li1+  0.067  0.196  0.752  0.000
  Li186  Li1+  0.067  0.192  0.789  0.000
  Li189  Li1+  0.133  0.004  0.739  0.000
  Li191  Li1+  0.129  0.008  0.794  0.000
  Li192  Li1+  0.192  0.067  0.789  0.000
  Li214  Li1+  0.004  0.129  0.831  0.000
  Li217  Li1+  0.004  0.133  0.975  0.000
  Li227  Li1+  0.008  0.129  0.994  0.000
  Li232  Li1+  0.067  0.067  0.836  0.000
  Li234  Li1+  0.067  0.192  0.989  0.000
  Li236  Li1+  0.129  0.129  0.819  0.000
  Li237  Li1+  0.133  0.004  0.939  0.000
  Li238  Li1+  0.133  0.004  0.975  0.000
  Li239  Li1+  0.129  0.008  0.994  0.000
  Li253  Li1+  0.196  0.267  0.152  0.000
  Li265  Li1+  0.004  0.333  0.175  0.000
  Li275  Li1+  0.008  0.329  0.194  0.000
  Li279  Li1+  0.067  0.267  0.000  0.000
  Li283  Li1+  0.129  0.204  0.031  0.000
  Li288  Li1+  0.192  0.267  0.189  0.000
  Li312  Li1+  0.004  0.333  0.339  0.000
  Li313  Li1+  0.004  0.333  0.375  0.000
  Li327  Li1+  0.067  0.267  0.200  0.000
  Li330  Li1+  0.067  0.392  0.389  0.000
  Li331  Li1+  0.129  0.204  0.231  0.000
  Li332  Li1+  0.129  0.329  0.219  0.000
  Li333  Li1+  0.133  0.204  0.339  0.000
  Li335  Li1+  0.129  0.208  0.394  0.000
  Li336  Li1+  0.192  0.267  0.389  0.000
  Li349  Li1+  0.196  0.267  0.552  0.000
  Li358  Li1+  0.004  0.329  0.431  0.000
  Li360  Li1+  0.004  0.333  0.539  0.000
  Li361  Li1+  0.004  0.333  0.575  0.000
  Li371  Li1+  0.008  0.329  0.594  0.000
  Li376  Li1+  0.067  0.267  0.436  0.000
  Li378  Li1+  0.067  0.392  0.589  0.000
  Li380  Li1+  0.129  0.329  0.419  0.000
  Li381  Li1+  0.133  0.204  0.539  0.000
  Li382  Li1+  0.133  0.204  0.575  0.000
  Li399  Li1+  0.100  0.300  0.791  0.000
  Li408  Li1+  0.004  0.333  0.739  0.000
  Li409  Li1+  0.004  0.333  0.775  0.000
  Li419  Li1+  0.008  0.329  0.794  0.000
  Li423  Li1+  0.067  0.267  0.600  0.000
  Li424  Li1+  0.067  0.267  0.636  0.000
  Li426  Li1+  0.067  0.392  0.789  0.000
  Li427  Li1+  0.129  0.204  0.631  0.000
  Li431  Li1+  0.129  0.208  0.794  0.000
  Li432  Li1+  0.192  0.267  0.789  0.000
  Li445  Li1+  0.196  0.267  0.952  0.000
  Li454  Li1+  0.004  0.329  0.831  0.000
  Li467  Li1+  0.008  0.329  0.994  0.000
  Li473  Li1+  0.067  0.396  0.952  0.000
  Li474  Li1+  0.067  0.392  0.989  0.000
  Li475  Li1+  0.129  0.204  0.831  0.000
  Li477  Li1+  0.133  0.204  0.939  0.000
  Li478  Li1+  0.133  0.204  0.975  0.000
  Li480  Li1+  0.192  0.267  0.989  0.000
  Li502  Li1+  0.004  0.529  0.031  0.000
  Li504  Li1+  0.004  0.533  0.139  0.000
  Li515  Li1+  0.008  0.529  0.194  0.000
  Li521  Li1+  0.067  0.596  0.152  0.000
  Li525  Li1+  0.133  0.404  0.139  0.000
  Li526  Li1+  0.133  0.404  0.175  0.000
  Li528  Li1+  0.192  0.467  0.189  0.000
  Li541  Li1+  0.196  0.467  0.352  0.000
  Li553  Li1+  0.004  0.533  0.375  0.000
  Li569  Li1+  0.067  0.596  0.352  0.000
  Li570  Li1+  0.067  0.592  0.389  0.000
  Li573  Li1+  0.133  0.404  0.339  0.000
  Li574  Li1+  0.133  0.404  0.375  0.000
  Li575  Li1+  0.129  0.408  0.394  0.000
  Li589  Li1+  0.196  0.467  0.552  0.000
  Li598  Li1+  0.004  0.529  0.431  0.000
  Li600  Li1+  0.004  0.533  0.539  0.000
  Li601  Li1+  0.004  0.533  0.575  0.000
  Li611  Li1+  0.008  0.529  0.594  0.000
  Li617  Li1+  0.067  0.596  0.552  0.000
  Li618  Li1+  0.067  0.592  0.589  0.000
  Li620  Li1+  0.129  0.529  0.419  0.000
  Li621  Li1+  0.133  0.404  0.539  0.000
  Li622  Li1+  0.133  0.404  0.575  0.000
  Li623  Li1+  0.129  0.408  0.594  0.000
  Li646  Li1+  0.004  0.529  0.631  0.000
  Li648  Li1+  0.004  0.533  0.739  0.000
  Li649  Li1+  0.004  0.533  0.775  0.000
  Li663  Li1+  0.067  0.467  0.600  0.000
  Li667  Li1+  0.129  0.404  0.631  0.000
  Li669  Li1+  0.133  0.404  0.739  0.000
  Li670  Li1+  0.133  0.404  0.775  0.000
  Li671  Li1+  0.129  0.408  0.794  0.000
  Li678  Li1+  0.046  0.446  0.987  0.000
  Li699  Li1+  0.150  0.550  0.996  0.000
  Li707  Li1+  0.008  0.529  0.994  0.000
  Li712  Li1+  0.067  0.467  0.836  0.000
  Li714  Li1+  0.067  0.592  0.989  0.000
  Li715  Li1+  0.129  0.404  0.831  0.000
  Li717  Li1+  0.133  0.404  0.939  0.000
  Li718  Li1+  0.133  0.404  0.975  0.000
  Li719  Li1+  0.129  0.408  0.994  0.000
  Li721  Li1+  0.046  0.646  0.024  0.000
  Li733  Li1+  0.196  0.667  0.152  0.000
  Li744  Li1+  0.004  0.733  0.139  0.000
  Li745  Li1+  0.004  0.733  0.175  0.000
  Li755  Li1+  0.008  0.729  0.194  0.000
  Li761  Li1+  0.067  0.796  0.152  0.000
  Li762  Li1+  0.067  0.792  0.189  0.000
  Li763  Li1+  0.129  0.604  0.031  0.000
  Li766  Li1+  0.133  0.604  0.175  0.000
  Li780  Li1+  0.050  0.650  0.350  0.000
  Li781  Li1+  0.196  0.667  0.352  0.000
  Li790  Li1+  0.004  0.729  0.231  0.000
  Li792  Li1+  0.004  0.733  0.339  0.000
  Li793  Li1+  0.004  0.733  0.375  0.000
  Li803  Li1+  0.008  0.729  0.394  0.000
  Li813  Li1+  0.133  0.604  0.339  0.000
  Li829  Li1+  0.196  0.667  0.552  0.000
  Li840  Li1+  0.004  0.733  0.539  0.000
  Li841  Li1+  0.004  0.733  0.575  0.000
  Li851  Li1+  0.008  0.729  0.594  0.000
  Li856  Li1+  0.067  0.667  0.436  0.000
  Li858  Li1+  0.067  0.792  0.589  0.000
  Li863  Li1+  0.129  0.608  0.594  0.000
  Li864  Li1+  0.192  0.667  0.589  0.000
  Li877  Li1+  0.196  0.667  0.752  0.000
  Li899  Li1+  0.008  0.729  0.794  0.000
  Li905  Li1+  0.067  0.796  0.752  0.000
  Li907  Li1+  0.129  0.604  0.631  0.000
  Li909  Li1+  0.133  0.604  0.739  0.000
  Li912  Li1+  0.192  0.667  0.789  0.000
  Li925  Li1+  0.196  0.667  0.952  0.000
  Li934  Li1+  0.004  0.729  0.831  0.000
  Li936  Li1+  0.004  0.733  0.939  0.000
  Li947  Li1+  0.008  0.729  0.994  0.000
  Li952  Li1+  0.067  0.667  0.836  0.000
  Li953  Li1+  0.067  0.796  0.952  0.000
  Li955  Li1+  0.129  0.604  0.831  0.000
  Li958  Li1+  0.133  0.604  0.975  0.000
  Li960  Li1+  0.192  0.667  0.989  0.000
  Li973  Li1+  0.196  0.867  0.152  0.000
  Li982  Li1+  0.004  0.929  0.031  0.000
  Li989  Li1+  0.150  0.946  0.014  0.000
  Li995  Li1+  0.008  0.929  0.194  0.000
  Li999  Li1+  0.067  0.867  0.000  0.000
  Li1000  Li1+  0.067  0.867  0.036  0.000
  Li1004  Li1+  0.129  0.929  0.019  0.000
  Li1006  Li1+  0.133  0.804  0.175  0.000
  Li1007  Li1+  0.129  0.808  0.194  0.000
  Li1008  Li1+  0.192  0.867  0.189  0.000
  Li1021  Li1+  0.196  0.867  0.352  0.000
  Li1032  Li1+  0.004  0.933  0.339  0.000
  Li1043  Li1+  0.008  0.929  0.394  0.000
  Li1045  Li1+  0.100  0.900  0.373  0.000
  Li1047  Li1+  0.067  0.867  0.200  0.000
  Li1050  Li1+  0.067  0.992  0.389  0.000
  Li1053  Li1+  0.133  0.804  0.339  0.000
  Li1056  Li1+  0.192  0.867  0.389  0.000
  Li1080  Li1+  0.004  0.933  0.539  0.000
  Li1095  Li1+  0.067  0.867  0.400  0.000
  Li1096  Li1+  0.067  0.867  0.436  0.000
  Li1098  Li1+  0.067  0.992  0.589  0.000
  Li1103  Li1+  0.129  0.808  0.594  0.000
  Li1104  Li1+  0.192  0.867  0.589  0.000
  Li1117  Li1+  0.196  0.867  0.752  0.000
  Li1128  Li1+  0.004  0.933  0.739  0.000
  Li1129  Li1+  0.004  0.933  0.775  0.000
  Li1143  Li1+  0.067  0.867  0.600  0.000
  Li1150  Li1+  0.133  0.804  0.775  0.000
  Li1151  Li1+  0.129  0.808  0.794  0.000
  Li1152  Li1+  0.192  0.867  0.789  0.000
  Li1165  Li1+  0.196  0.867  0.952  0.000
  Li1174  Li1+  0.004  0.929  0.831  0.000
  Li1176  Li1+  0.004  0.933  0.939  0.000
  Li1193  Li1+  0.067  0.996  0.952  0.000
  Li1195  Li1+  0.129  0.804  0.831  0.000
  Li1200  Li1+  0.192  0.867  0.989  0.000
  Li1219  Li1+  0.300  0.100  0.136  0.000
  Li1225  Li1+  0.204  0.133  0.175  0.000
  Li1235  Li1+  0.208  0.129  0.194  0.000
  Li1237  Li1+  0.300  0.100  0.173  0.000
  Li1239  Li1+  0.267  0.067  0.000  0.000
  Li1261  Li1+  0.396  0.067  0.352  0.000
  Li1270  Li1+  0.204  0.129  0.231  0.000
  Li1272  Li1+  0.204  0.133  0.339  0.000
  Li1287  Li1+  0.267  0.067  0.200  0.000
  Li1289  Li1+  0.267  0.196  0.352  0.000
  Li1291  Li1+  0.329  0.004  0.231  0.000
  Li1294  Li1+  0.333  0.004  0.375  0.000
  Li1295  Li1+  0.329  0.008  0.394  0.000
  Li1296  Li1+  0.392  0.067  0.389  0.000
  Li1309  Li1+  0.396  0.067  0.552  0.000
  Li1318  Li1+  0.204  0.129  0.431  0.000
  Li1320  Li1+  0.204  0.133  0.539  0.000
  Li1322  Li1+  0.250  0.046  0.442  0.000
  Li1331  Li1+  0.208  0.129  0.594  0.000
  Li1336  Li1+  0.267  0.067  0.436  0.000
  Li1339  Li1+  0.329  0.004  0.431  0.000
  Li1340  Li1+  0.329  0.129  0.419  0.000
  Li1341  Li1+  0.333  0.004  0.539  0.000
  Li1343  Li1+  0.329  0.008  0.594  0.000
  Li1344  Li1+  0.392  0.067  0.589  0.000
  Li1350  Li1+  0.246  0.046  0.787  0.000
  Li1357  Li1+  0.396  0.067  0.752  0.000
  Li1369  Li1+  0.204  0.133  0.775  0.000
  Li1376  Li1+  0.300  0.100  0.718  0.000
  Li1383  Li1+  0.267  0.067  0.600  0.000
  Li1384  Li1+  0.267  0.067  0.636  0.000
  Li1386  Li1+  0.267  0.192  0.789  0.000
  Li1387  Li1+  0.329  0.004  0.631  0.000
  Li1388  Li1+  0.329  0.129  0.619  0.000
  Li1392  Li1+  0.392  0.067  0.789  0.000
  Li1405  Li1+  0.396  0.067  0.952  0.000
  Li1414  Li1+  0.204  0.129  0.831  0.000
  Li1416  Li1+  0.204  0.133  0.939  0.000
  Li1427  Li1+  0.208  0.129  0.994  0.000
  Li1431  Li1+  0.267  0.067  0.800  0.000
  Li1432  Li1+  0.267  0.067  0.836  0.000
  Li1436  Li1+  0.329  0.129  0.819  0.000
  Li1437  Li1+  0.333  0.004  0.939  0.000
  Li1438  Li1+  0.333  0.004  0.975  0.000
  Li1439  Li1+  0.329  0.008  0.994  0.000
  Li1440  Li1+  0.392  0.067  0.989  0.000
  Li1462  Li1+  0.204  0.329  0.031  0.000
  Li1464  Li1+  0.204  0.333  0.139  0.000
  Li1474  Li1+  0.300  0.300  0.154  0.000
  Li1475  Li1+  0.208  0.329  0.194  0.000
  Li1479  Li1+  0.267  0.267  0.000  0.000
  Li1481  Li1+  0.267  0.396  0.152  0.000
  Li1482  Li1+  0.267  0.392  0.189  0.000
  Li1487  Li1+  0.329  0.208  0.194  0.000
  Li1501  Li1+  0.396  0.267  0.352  0.000
  Li1523  Li1+  0.208  0.329  0.394  0.000
  Li1528  Li1+  0.267  0.267  0.236  0.000
  Li1531  Li1+  0.329  0.204  0.231  0.000
  Li1534  Li1+  0.333  0.204  0.375  0.000
  Li1535  Li1+  0.329  0.208  0.394  0.000
  Li1558  Li1+  0.204  0.329  0.431  0.000
  Li1561  Li1+  0.204  0.333  0.575  0.000
  Li1578  Li1+  0.267  0.392  0.589  0.000
  Li1581  Li1+  0.333  0.204  0.539  0.000
  Li1582  Li1+  0.333  0.204  0.575  0.000
  Li1584  Li1+  0.392  0.267  0.589  0.000
  Li1597  Li1+  0.396  0.267  0.752  0.000
  Li1603  Li1+  0.300  0.300  0.736  0.000
  Li1606  Li1+  0.204  0.329  0.631  0.000
  Li1608  Li1+  0.204  0.333  0.739  0.000
  Li1620  Li1+  0.296  0.296  0.628  0.000
  Li1623  Li1+  0.267  0.267  0.600  0.000
  Li1626  Li1+  0.267  0.392  0.789  0.000
  Li1631  Li1+  0.329  0.208  0.794  0.000
  Li1632  Li1+  0.392  0.267  0.789  0.000
  Li1645  Li1+  0.396  0.267  0.952  0.000
  Li1654  Li1+  0.204  0.329  0.831  0.000
  Li1656  Li1+  0.204  0.333  0.939  0.000
  Li1657  Li1+  0.204  0.333  0.975  0.000
  Li1673  Li1+  0.267  0.396  0.952  0.000
  Li1674  Li1+  0.267  0.392  0.989  0.000
  Li1675  Li1+  0.329  0.204  0.831  0.000
  Li1676  Li1+  0.329  0.329  0.819  0.000
  Li1678  Li1+  0.333  0.204  0.975  0.000
  Li1679  Li1+  0.329  0.208  0.994  0.000
  Li1680  Li1+  0.392  0.267  0.989  0.000
  Li1693  Li1+  0.396  0.467  0.152  0.000
  Li1721  Li1+  0.267  0.596  0.152  0.000
  Li1725  Li1+  0.333  0.404  0.139  0.000
  Li1727  Li1+  0.329  0.408  0.194  0.000
  Li1728  Li1+  0.392  0.467  0.189  0.000
  Li1741  Li1+  0.396  0.467  0.352  0.000
  Li1750  Li1+  0.204  0.529  0.231  0.000
  Li1753  Li1+  0.204  0.533  0.375  0.000
  Li1763  Li1+  0.208  0.529  0.394  0.000
  Li1769  Li1+  0.267  0.596  0.352  0.000
  Li1771  Li1+  0.329  0.404  0.231  0.000
  Li1772  Li1+  0.329  0.529  0.219  0.000
  Li1773  Li1+  0.333  0.404  0.339  0.000
  Li1776  Li1+  0.392  0.467  0.389  0.000
  Li1789  Li1+  0.396  0.467  0.552  0.000
  Li1798  Li1+  0.204  0.529  0.431  0.000
  Li1811  Li1+  0.208  0.529  0.594  0.000
  Li1817  Li1+  0.267  0.596  0.552  0.000
  Li1818  Li1+  0.267  0.592  0.589  0.000
  Li1821  Li1+  0.333  0.404  0.539  0.000
  Li1824  Li1+  0.392  0.467  0.589  0.000
  Li1837  Li1+  0.396  0.467  0.752  0.000
  Li1849  Li1+  0.204  0.533  0.775  0.000
  Li1859  Li1+  0.208  0.529  0.794  0.000
  Li1865  Li1+  0.267  0.596  0.752  0.000
  Li1866  Li1+  0.267  0.592  0.789  0.000
  Li1869  Li1+  0.333  0.404  0.739  0.000
  Li1870  Li1+  0.333  0.404  0.775  0.000
  Li1871  Li1+  0.329  0.408  0.794  0.000
  Li1872  Li1+  0.392  0.467  0.789  0.000
  Li1891  Li1+  0.300  0.500  0.936  0.000
  Li1897  Li1+  0.204  0.533  0.975  0.000
  Li1907  Li1+  0.208  0.529  0.994  0.000
  Li1913  Li1+  0.267  0.596  0.952  0.000
  Li1919  Li1+  0.329  0.408  0.994  0.000
  Li1920  Li1+  0.392  0.467  0.989  0.000
  Li1945  Li1+  0.204  0.733  0.175  0.000
  Li1955  Li1+  0.208  0.729  0.194  0.000
  Li1962  Li1+  0.267  0.792  0.189  0.000
  Li1965  Li1+  0.333  0.604  0.139  0.000
  Li1966  Li1+  0.333  0.604  0.175  0.000
  Li1968  Li1+  0.392  0.667  0.189  0.000
  Li1981  Li1+  0.396  0.667  0.352  0.000
  Li1992  Li1+  0.204  0.733  0.339  0.000
  Li2010  Li1+  0.267  0.792  0.389  0.000
  Li2057  Li1+  0.267  0.796  0.552  0.000
  Li2058  Li1+  0.267  0.792  0.589  0.000
  Li2060  Li1+  0.329  0.729  0.419  0.000
  Li2062  Li1+  0.333  0.604  0.575  0.000
  Li2063  Li1+  0.329  0.608  0.594  0.000
  Li2064  Li1+  0.392  0.667  0.589  0.000
  Li2077  Li1+  0.396  0.667  0.752  0.000
  Li2086  Li1+  0.204  0.729  0.631  0.000
  Li2099  Li1+  0.208  0.729  0.794  0.000
  Li2101  Li1+  0.300  0.700  0.773  0.000
  Li2106  Li1+  0.267  0.792  0.789  0.000
  Li2107  Li1+  0.329  0.604  0.631  0.000
  Li2109  Li1+  0.333  0.604  0.739  0.000
  Li2112  Li1+  0.392  0.667  0.789  0.000
  Li2125  Li1+  0.396  0.667  0.952  0.000
  Li2131  Li1+  0.300  0.700  0.936  0.000
  Li2134  Li1+  0.204  0.729  0.831  0.000
  Li2136  Li1+  0.204  0.733  0.939  0.000
  Li2137  Li1+  0.204  0.733  0.975  0.000
  Li2151  Li1+  0.267  0.667  0.800  0.000
  Li2153  Li1+  0.267  0.796  0.952  0.000
  Li2154  Li1+  0.267  0.792  0.989  0.000
  Li2157  Li1+  0.333  0.604  0.939  0.000
  Li2158  Li1+  0.333  0.604  0.975  0.000
  Li2160  Li1+  0.392  0.667  0.989  0.000
  Li2182  Li1+  0.204  0.929  0.031  0.000
  Li2184  Li1+  0.204  0.933  0.139  0.000
  Li2197  Li1+  0.300  0.900  0.173  0.000
  Li2200  Li1+  0.267  0.867  0.036  0.000
  Li2202  Li1+  0.267  0.992  0.189  0.000
  Li2203  Li1+  0.329  0.804  0.031  0.000
  Li2205  Li1+  0.333  0.804  0.139  0.000
  Li2208  Li1+  0.392  0.867  0.189  0.000
  Li2221  Li1+  0.396  0.867  0.352  0.000
  Li2230  Li1+  0.204  0.929  0.231  0.000
  Li2233  Li1+  0.204  0.933  0.375  0.000
  Li2243  Li1+  0.208  0.929  0.394  0.000
  Li2250  Li1+  0.267  0.992  0.389  0.000
  Li2251  Li1+  0.329  0.804  0.231  0.000
  Li2253  Li1+  0.333  0.804  0.339  0.000
  Li2254  Li1+  0.333  0.804  0.375  0.000
  Li2255  Li1+  0.329  0.808  0.394  0.000
  Li2278  Li1+  0.204  0.929  0.431  0.000
  Li2295  Li1+  0.267  0.867  0.400  0.000
  Li2296  Li1+  0.267  0.867  0.436  0.000
  Li2297  Li1+  0.267  0.996  0.552  0.000
  Li2298  Li1+  0.267  0.992  0.589  0.000
  Li2299  Li1+  0.329  0.804  0.431  0.000
  Li2301  Li1+  0.333  0.804  0.539  0.000
  Li2317  Li1+  0.396  0.867  0.752  0.000
  Li2328  Li1+  0.204  0.933  0.739  0.000
  Li2344  Li1+  0.267  0.867  0.636  0.000
  Li2346  Li1+  0.267  0.992  0.789  0.000
  Li2350  Li1+  0.333  0.804  0.775  0.000
  Li2351  Li1+  0.329  0.808  0.794  0.000
  Li2352  Li1+  0.392  0.867  0.789  0.000
  Li2365  Li1+  0.396  0.867  0.952  0.000
  Li2374  Li1+  0.204  0.929  0.831  0.000
  Li2376  Li1+  0.204  0.933  0.939  0.000
  Li2387  Li1+  0.208  0.929  0.994  0.000
  Li2389  Li1+  0.300  0.900  0.973  0.000
  Li2393  Li1+  0.267  0.996  0.952  0.000
  Li2395  Li1+  0.329  0.804  0.831  0.000
  Li2396  Li1+  0.329  0.929  0.819  0.000
  Li2397  Li1+  0.333  0.804  0.939  0.000
  Li2399  Li1+  0.329  0.808  0.994  0.000
  Li2408  Li1+  0.450  0.050  0.059  0.000
  Li2425  Li1+  0.404  0.133  0.175  0.000
  Li2427  Li1+  0.550  0.150  0.196  0.000
  Li2435  Li1+  0.408  0.129  0.194  0.000
  Li2441  Li1+  0.467  0.196  0.152  0.000
  Li2444  Li1+  0.529  0.129  0.019  0.000
  Li2448  Li1+  0.592  0.067  0.189  0.000
  Li2472  Li1+  0.404  0.133  0.339  0.000
  Li2473  Li1+  0.404  0.133  0.375  0.000
  Li2487  Li1+  0.467  0.067  0.200  0.000
  Li2488  Li1+  0.467  0.067  0.236  0.000
  Li2495  Li1+  0.529  0.008  0.394  0.000
  Li2496  Li1+  0.592  0.067  0.389  0.000
  Li2518  Li1+  0.404  0.129  0.431  0.000
  Li2520  Li1+  0.404  0.133  0.539  0.000
  Li2521  Li1+  0.404  0.133  0.575  0.000
  Li2531  Li1+  0.408  0.129  0.594  0.000
  Li2540  Li1+  0.529  0.129  0.419  0.000
  Li2543  Li1+  0.529  0.008  0.594  0.000
  Li2557  Li1+  0.596  0.067  0.752  0.000
  Li2566  Li1+  0.404  0.129  0.631  0.000
  Li2568  Li1+  0.404  0.133  0.739  0.000
  Li2569  Li1+  0.404  0.133  0.775  0.000
  Li2583  Li1+  0.467  0.067  0.600  0.000
  Li2585  Li1+  0.467  0.196  0.752  0.000
  Li2586  Li1+  0.467  0.192  0.789  0.000
  Li2587  Li1+  0.529  0.004  0.631  0.000
  Li2588  Li1+  0.529  0.129  0.619  0.000
  Li2590  Li1+  0.533  0.004  0.775  0.000
  Li2592  Li1+  0.592  0.067  0.789  0.000
  Li2605  Li1+  0.596  0.067  0.952  0.000
  Li2614  Li1+  0.404  0.129  0.831  0.000
  Li2616  Li1+  0.404  0.133  0.939  0.000
  Li2633  Li1+  0.467  0.196  0.952  0.000
  Li2637  Li1+  0.533  0.004  0.939  0.000
  Li2640  Li1+  0.592  0.067  0.989  0.000
  Li2653  Li1+  0.596  0.267  0.152  0.000
  Li2662  Li1+  0.404  0.329  0.031  0.000
  Li2664  Li1+  0.404  0.333  0.139  0.000
  Li2675  Li1+  0.408  0.329  0.194  0.000
  Li2681  Li1+  0.467  0.396  0.152  0.000
  Li2685  Li1+  0.533  0.204  0.139  0.000
  Li2686  Li1+  0.533  0.204  0.175  0.000
  Li2688  Li1+  0.592  0.267  0.189  0.000
  Li2701  Li1+  0.596  0.267  0.352  0.000
  Li2713  Li1+  0.404  0.333  0.375  0.000
  Li2723  Li1+  0.408  0.329  0.394  0.000
  Li2727  Li1+  0.467  0.267  0.200  0.000
  Li2733  Li1+  0.533  0.204  0.339  0.000
  Li2734  Li1+  0.533  0.204  0.375  0.000
  Li2735  Li1+  0.529  0.208  0.394  0.000
  Li2736  Li1+  0.592  0.267  0.389  0.000
  Li2758  Li1+  0.404  0.329  0.431  0.000
  Li2761  Li1+  0.404  0.333  0.575  0.000
  Li2771  Li1+  0.408  0.329  0.594  0.000
  Li2775  Li1+  0.467  0.267  0.400  0.000
  Li2777  Li1+  0.467  0.396  0.552  0.000
  Li2779  Li1+  0.529  0.204  0.431  0.000
  Li2782  Li1+  0.533  0.204  0.575  0.000
  Li2783  Li1+  0.529  0.208  0.594  0.000
  Li2784  Li1+  0.592  0.267  0.589  0.000
  Li2799  Li1+  0.500  0.300  0.791  0.000
  Li2809  Li1+  0.404  0.333  0.775  0.000
  Li2827  Li1+  0.529  0.204  0.631  0.000
  Li2828  Li1+  0.529  0.329  0.619  0.000
  Li2832  Li1+  0.592  0.267  0.789  0.000
  Li2845  Li1+  0.596  0.267  0.952  0.000
  Li2857  Li1+  0.404  0.333  0.975  0.000
  Li2866  Li1+  0.500  0.300  0.954  0.000
  Li2867  Li1+  0.408  0.329  0.994  0.000
  Li2871  Li1+  0.467  0.267  0.800  0.000
  Li2872  Li1+  0.467  0.267  0.836  0.000
  Li2873  Li1+  0.467  0.396  0.952  0.000
  Li2874  Li1+  0.467  0.392  0.989  0.000
  Li2877  Li1+  0.533  0.204  0.939  0.000
  Li2878  Li1+  0.533  0.204  0.975  0.000
  Li2879  Li1+  0.529  0.208  0.994  0.000
  Li2893  Li1+  0.596  0.467  0.152  0.000
  Li2902  Li1+  0.404  0.529  0.031  0.000
  Li2904  Li1+  0.404  0.533  0.139  0.000
  Li2926  Li1+  0.533  0.404  0.175  0.000
  Li2928  Li1+  0.592  0.467  0.189  0.000
  Li2941  Li1+  0.596  0.467  0.352  0.000
  Li2950  Li1+  0.404  0.529  0.231  0.000
  Li2953  Li1+  0.404  0.533  0.375  0.000
  Li2963  Li1+  0.408  0.529  0.394  0.000
  Li2970  Li1+  0.467  0.592  0.389  0.000
  Li2971  Li1+  0.529  0.404  0.231  0.000
  Li2972  Li1+  0.529  0.529  0.219  0.000
  Li2973  Li1+  0.533  0.404  0.339  0.000
  Li2975  Li1+  0.529  0.408  0.394  0.000
  Li2976  Li1+  0.592  0.467  0.389  0.000
  Li2989  Li1+  0.596  0.467  0.552  0.000
  Li3017  Li1+  0.467  0.596  0.552  0.000
  Li3020  Li1+  0.529  0.529  0.419  0.000
  Li3021  Li1+  0.533  0.404  0.539  0.000
  Li3022  Li1+  0.533  0.404  0.575  0.000
  Li3024  Li1+  0.592  0.467  0.589  0.000
  Li3037  Li1+  0.596  0.467  0.752  0.000
  Li3048  Li1+  0.404  0.533  0.739  0.000
  Li3049  Li1+  0.404  0.533  0.775  0.000
  Li3063  Li1+  0.467  0.467  0.600  0.000
  Li3065  Li1+  0.467  0.596  0.752  0.000
  Li3066  Li1+  0.467  0.592  0.789  0.000
  Li3085  Li1+  0.596  0.467  0.952  0.000
  Li3107  Li1+  0.408  0.529  0.994  0.000
  Li3114  Li1+  0.467  0.592  0.989  0.000
  Li3115  Li1+  0.529  0.404  0.831  0.000
  Li3116  Li1+  0.529  0.529  0.819  0.000
  Li3118  Li1+  0.533  0.404  0.975  0.000
  Li3119  Li1+  0.529  0.408  0.994  0.000
  Li3133  Li1+  0.596  0.667  0.152  0.000
  Li3142  Li1+  0.404  0.729  0.031  0.000
  Li3155  Li1+  0.408  0.729  0.194  0.000
  Li3162  Li1+  0.467  0.792  0.189  0.000
  Li3165  Li1+  0.533  0.604  0.139  0.000
  Li3166  Li1+  0.533  0.604  0.175  0.000
  Li3181  Li1+  0.596  0.667  0.352  0.000
  Li3192  Li1+  0.404  0.733  0.339  0.000
  Li3193  Li1+  0.404  0.733  0.375  0.000
  Li3203  Li1+  0.408  0.729  0.394  0.000
  Li3207  Li1+  0.467  0.667  0.200  0.000
  Li3208  Li1+  0.467  0.667  0.236  0.000
  Li3214  Li1+  0.533  0.604  0.375  0.000
  Li3216  Li1+  0.592  0.667  0.389  0.000
  Li3229  Li1+  0.596  0.667  0.552  0.000
  Li3258  Li1+  0.467  0.792  0.589  0.000
  Li3261  Li1+  0.533  0.604  0.539  0.000
  Li3277  Li1+  0.596  0.667  0.752  0.000
  Li3285  Li1+  0.550  0.746  0.632  0.000
  Li3288  Li1+  0.404  0.733  0.739  0.000
  Li3289  Li1+  0.404  0.733  0.775  0.000
  Li3299  Li1+  0.408  0.729  0.794  0.000
  Li3304  Li1+  0.467  0.667  0.636  0.000
  Li3306  Li1+  0.467  0.792  0.789  0.000
  Li3310  Li1+  0.533  0.604  0.775  0.000
  Li3311  Li1+  0.529  0.608  0.794  0.000
  Li3312  Li1+  0.592  0.667  0.789  0.000
  Li3334  Li1+  0.404  0.729  0.831  0.000
  Li3336  Li1+  0.404  0.733  0.939  0.000
  Li3337  Li1+  0.404  0.733  0.975  0.000
  Li3347  Li1+  0.408  0.729  0.994  0.000
  Li3351  Li1+  0.467  0.667  0.800  0.000
  Li3353  Li1+  0.467  0.796  0.952  0.000
  Li3355  Li1+  0.529  0.604  0.831  0.000
  Li3360  Li1+  0.592  0.667  0.989  0.000
  Li3366  Li1+  0.446  0.846  0.187  0.000
  Li3373  Li1+  0.596  0.867  0.152  0.000
  Li3397  Li1+  0.500  0.900  0.173  0.000
  Li3400  Li1+  0.467  0.867  0.036  0.000
  Li3401  Li1+  0.467  0.996  0.152  0.000
  Li3402  Li1+  0.467  0.992  0.189  0.000
  Li3405  Li1+  0.533  0.804  0.139  0.000
  Li3406  Li1+  0.533  0.804  0.175  0.000
  Li3421  Li1+  0.596  0.867  0.352  0.000
  Li3423  Li1+  0.500  0.900  0.391  0.000
  Li3443  Li1+  0.408  0.929  0.394  0.000
  Li3449  Li1+  0.467  0.996  0.352  0.000
  Li3450  Li1+  0.467  0.992  0.389  0.000
  Li3451  Li1+  0.529  0.804  0.231  0.000
  Li3453  Li1+  0.533  0.804  0.339  0.000
  Li3454  Li1+  0.533  0.804  0.375  0.000
  Li3480  Li1+  0.404  0.933  0.539  0.000
  Li3481  Li1+  0.404  0.933  0.575  0.000
  Li3496  Li1+  0.467  0.867  0.436  0.000
  Li3497  Li1+  0.467  0.996  0.552  0.000
  Li3501  Li1+  0.533  0.804  0.539  0.000
  Li3502  Li1+  0.533  0.804  0.575  0.000
  Li3504  Li1+  0.592  0.867  0.589  0.000
  Li3525  Li1+  0.550  0.946  0.632  0.000
  Li3526  Li1+  0.404  0.929  0.631  0.000
  Li3528  Li1+  0.404  0.933  0.739  0.000
  Li3529  Li1+  0.404  0.933  0.775  0.000
  Li3539  Li1+  0.408  0.929  0.794  0.000
  Li3544  Li1+  0.467  0.867  0.636  0.000
  Li3546  Li1+  0.467  0.992  0.789  0.000
  Li3547  Li1+  0.529  0.804  0.631  0.000
  Li3549  Li1+  0.533  0.804  0.739  0.000
  Li3552  Li1+  0.592  0.867  0.789  0.000
  Li3574  Li1+  0.404  0.929  0.831  0.000
  Li3576  Li1+  0.404  0.933  0.939  0.000
  Li3577  Li1+  0.404  0.933  0.975  0.000
  Li3591  Li1+  0.467  0.867  0.800  0.000
  Li3592  Li1+  0.467  0.867  0.836  0.000
  Li3596  Li1+  0.529  0.929  0.819  0.000
  Li3599  Li1+  0.529  0.808  0.994  0.000
  Li3600  Li1+  0.592  0.867  0.989  0.000
  Li3613  Li1+  0.796  0.067  0.152  0.000
  Li3625  Li1+  0.604  0.133  0.175  0.000
  Li3634  Li1+  0.700  0.100  0.154  0.000
  Li3635  Li1+  0.608  0.129  0.194  0.000
  Li3643  Li1+  0.729  0.004  0.031  0.000
  Li3644  Li1+  0.729  0.129  0.019  0.000
  Li3645  Li1+  0.733  0.004  0.139  0.000
  Li3647  Li1+  0.729  0.008  0.194  0.000
  Li3648  Li1+  0.792  0.067  0.189  0.000
  Li3690  Li1+  0.667  0.192  0.389  0.000
  Li3694  Li1+  0.733  0.004  0.375  0.000
  Li3695  Li1+  0.729  0.008  0.394  0.000
  Li3696  Li1+  0.792  0.067  0.389  0.000
  Li3709  Li1+  0.796  0.067  0.552  0.000
  Li3720  Li1+  0.604  0.133  0.539  0.000
  Li3721  Li1+  0.604  0.133  0.575  0.000
  Li3731  Li1+  0.608  0.129  0.594  0.000
  Li3737  Li1+  0.667  0.196  0.552  0.000
  Li3741  Li1+  0.733  0.004  0.539  0.000
  Li3742  Li1+  0.733  0.004  0.575  0.000
  Li3744  Li1+  0.792  0.067  0.589  0.000
  Li3768  Li1+  0.604  0.133  0.739  0.000
  Li3779  Li1+  0.608  0.129  0.794  0.000
  Li3783  Li1+  0.667  0.067  0.600  0.000
  Li3785  Li1+  0.667  0.196  0.752  0.000
  Li3787  Li1+  0.729  0.004  0.631  0.000
  Li3789  Li1+  0.733  0.004  0.739  0.000
  Li3791  Li1+  0.729  0.008  0.794  0.000
  Li3792  Li1+  0.792  0.067  0.789  0.000
  Li3816  Li1+  0.604  0.133  0.939  0.000
  Li3832  Li1+  0.667  0.067  0.836  0.000
  Li3834  Li1+  0.667  0.192  0.989  0.000
  Li3836  Li1+  0.729  0.129  0.819  0.000
  Li3838  Li1+  0.733  0.004  0.975  0.000
  Li3840  Li1+  0.792  0.067  0.989  0.000
  Li3853  Li1+  0.796  0.267  0.152  0.000
  Li3864  Li1+  0.604  0.333  0.139  0.000
  Li3865  Li1+  0.604  0.333  0.175  0.000
  Li3881  Li1+  0.667  0.396  0.152  0.000
  Li3882  Li1+  0.667  0.392  0.189  0.000
  Li3885  Li1+  0.733  0.204  0.139  0.000
  Li3888  Li1+  0.792  0.267  0.189  0.000
  Li3901  Li1+  0.796  0.267  0.352  0.000
  Li3910  Li1+  0.604  0.329  0.231  0.000
  Li3927  Li1+  0.667  0.267  0.200  0.000
  Li3932  Li1+  0.729  0.329  0.219  0.000
  Li3933  Li1+  0.733  0.204  0.339  0.000
  Li3936  Li1+  0.792  0.267  0.389  0.000
  Li3949  Li1+  0.796  0.267  0.552  0.000
  Li3958  Li1+  0.604  0.329  0.431  0.000
  Li3961  Li1+  0.604  0.333  0.575  0.000
  Li3977  Li1+  0.667  0.396  0.552  0.000
  Li3978  Li1+  0.667  0.392  0.589  0.000
  Li3979  Li1+  0.729  0.204  0.431  0.000
  Li3997  Li1+  0.796  0.267  0.752  0.000
  Li4006  Li1+  0.604  0.329  0.631  0.000
  Li4008  Li1+  0.604  0.333  0.739  0.000
  Li4026  Li1+  0.667  0.392  0.789  0.000
  Li4029  Li1+  0.733  0.204  0.739  0.000
  Li4030  Li1+  0.733  0.204  0.775  0.000
  Li4031  Li1+  0.729  0.208  0.794  0.000
  Li4045  Li1+  0.796  0.267  0.952  0.000
  Li4054  Li1+  0.604  0.329  0.831  0.000
  Li4069  Li1+  0.700  0.300  0.973  0.000
  Li4072  Li1+  0.667  0.267  0.836  0.000
  Li4073  Li1+  0.667  0.396  0.952  0.000
  Li4075  Li1+  0.729  0.204  0.831  0.000
  Li4077  Li1+  0.733  0.204  0.939  0.000
  Li4078  Li1+  0.733  0.204  0.975  0.000
  Li4079  Li1+  0.729  0.208  0.994  0.000
  Li4080  Li1+  0.792  0.267  0.989  0.000
  Li4093  Li1+  0.796  0.467  0.152  0.000
  Li4104  Li1+  0.604  0.533  0.139  0.000
  Li4115  Li1+  0.608  0.529  0.194  0.000
  Li4121  Li1+  0.667  0.596  0.152  0.000
  Li4122  Li1+  0.667  0.592  0.189  0.000
  Li4123  Li1+  0.729  0.404  0.031  0.000
  Li4125  Li1+  0.733  0.404  0.139  0.000
  Li4126  Li1+  0.733  0.404  0.175  0.000
  Li4150  Li1+  0.604  0.529  0.231  0.000
  Li4152  Li1+  0.604  0.533  0.339  0.000
  Li4163  Li1+  0.608  0.529  0.394  0.000
  Li4167  Li1+  0.667  0.467  0.200  0.000
  Li4169  Li1+  0.667  0.596  0.352  0.000
  Li4171  Li1+  0.729  0.404  0.231  0.000
  Li4175  Li1+  0.729  0.408  0.394  0.000
  Li4176  Li1+  0.792  0.467  0.389  0.000
  Li4198  Li1+  0.604  0.529  0.431  0.000
  Li4200  Li1+  0.604  0.533  0.539  0.000
  Li4201  Li1+  0.604  0.533  0.575  0.000
  Li4211  Li1+  0.608  0.529  0.594  0.000
  Li4217  Li1+  0.667  0.596  0.552  0.000
  Li4219  Li1+  0.729  0.404  0.431  0.000
  Li4221  Li1+  0.733  0.404  0.539  0.000
  Li4222  Li1+  0.733  0.404  0.575  0.000
  Li4237  Li1+  0.796  0.467  0.752  0.000
  Li4248  Li1+  0.604  0.533  0.739  0.000
  Li4259  Li1+  0.608  0.529  0.794  0.000
  Li4266  Li1+  0.667  0.592  0.789  0.000
  Li4272  Li1+  0.792  0.467  0.789  0.000
  Li4285  Li1+  0.796  0.467  0.952  0.000
  Li4296  Li1+  0.604  0.533  0.939  0.000
  Li4297  Li1+  0.604  0.533  0.975  0.000
  Li4307  Li1+  0.608  0.529  0.994  0.000
  Li4317  Li1+  0.733  0.404  0.939  0.000
  Li4318  Li1+  0.733  0.404  0.975  0.000
  Li4344  Li1+  0.604  0.733  0.139  0.000
  Li4345  Li1+  0.604  0.733  0.175  0.000
  Li4355  Li1+  0.608  0.729  0.194  0.000
  Li4360  Li1+  0.667  0.667  0.036  0.000
  Li4361  Li1+  0.667  0.796  0.152  0.000
  Li4365  Li1+  0.733  0.604  0.139  0.000
  Li4381  Li1+  0.796  0.667  0.352  0.000
  Li4390  Li1+  0.604  0.729  0.231  0.000
  Li4393  Li1+  0.604  0.733  0.375  0.000
  Li4403  Li1+  0.608  0.729  0.394  0.000
  Li4411  Li1+  0.729  0.604  0.231  0.000
  Li4416  Li1+  0.792  0.667  0.389  0.000
  Li4440  Li1+  0.604  0.733  0.539  0.000
  Li4451  Li1+  0.608  0.729  0.594  0.000
  Li4457  Li1+  0.667  0.796  0.552  0.000
  Li4461  Li1+  0.733  0.604  0.539  0.000
  Li4464  Li1+  0.792  0.667  0.589  0.000
  Li4477  Li1+  0.796  0.667  0.752  0.000
  Li4486  Li1+  0.604  0.729  0.631  0.000
  Li4488  Li1+  0.604  0.733  0.739  0.000
  Li4499  Li1+  0.608  0.729  0.794  0.000
  Li4503  Li1+  0.667  0.667  0.600  0.000
  Li4505  Li1+  0.667  0.796  0.752  0.000
  Li4509  Li1+  0.733  0.604  0.739  0.000
  Li4512  Li1+  0.792  0.667  0.789  0.000
  Li4525  Li1+  0.796  0.667  0.952  0.000
  Li4536  Li1+  0.604  0.733  0.939  0.000
  Li4537  Li1+  0.604  0.733  0.975  0.000
  Li4547  Li1+  0.608  0.729  0.994  0.000
  Li4559  Li1+  0.729  0.608  0.994  0.000
  Li4560  Li1+  0.792  0.667  0.989  0.000
  Li4573  Li1+  0.796  0.867  0.152  0.000
  Li4579  Li1+  0.700  0.900  0.136  0.000
  Li4582  Li1+  0.604  0.929  0.031  0.000
  Li4584  Li1+  0.604  0.933  0.139  0.000
  Li4594  Li1+  0.700  0.900  0.154  0.000
  Li4595  Li1+  0.608  0.929  0.194  0.000
  Li4598  Li1+  0.700  0.900  0.100  0.000
  Li4601  Li1+  0.667  0.996  0.152  0.000
  Li4603  Li1+  0.729  0.804  0.031  0.000
  Li4604  Li1+  0.729  0.929  0.019  0.000
  Li4605  Li1+  0.733  0.804  0.139  0.000
  Li4608  Li1+  0.792  0.867  0.189  0.000
  Li4621  Li1+  0.796  0.867  0.352  0.000
  Li4630  Li1+  0.604  0.929  0.231  0.000
  Li4632  Li1+  0.604  0.933  0.339  0.000
  Li4649  Li1+  0.667  0.996  0.352  0.000
  Li4650  Li1+  0.667  0.992  0.389  0.000
  Li4651  Li1+  0.729  0.804  0.231  0.000
  Li4652  Li1+  0.729  0.929  0.219  0.000
  Li4654  Li1+  0.733  0.804  0.375  0.000
  Li4656  Li1+  0.792  0.867  0.389  0.000
  Li4678  Li1+  0.604  0.929  0.431  0.000
  Li4681  Li1+  0.604  0.933  0.575  0.000
  Li4691  Li1+  0.608  0.929  0.594  0.000
  Li4695  Li1+  0.667  0.867  0.400  0.000
  Li4699  Li1+  0.729  0.804  0.431  0.000
  Li4702  Li1+  0.733  0.804  0.575  0.000
  Li4703  Li1+  0.729  0.808  0.594  0.000
  Li4704  Li1+  0.792  0.867  0.589  0.000
  Li4717  Li1+  0.796  0.867  0.752  0.000
  Li4726  Li1+  0.604  0.929  0.631  0.000
  Li4728  Li1+  0.604  0.933  0.739  0.000
  Li4729  Li1+  0.604  0.933  0.775  0.000
  Li4739  Li1+  0.608  0.929  0.794  0.000
  Li4745  Li1+  0.667  0.996  0.752  0.000
  Li4746  Li1+  0.667  0.992  0.789  0.000
  Li4747  Li1+  0.729  0.804  0.631  0.000
  Li4749  Li1+  0.733  0.804  0.739  0.000
  Li4750  Li1+  0.733  0.804  0.775  0.000
  Li4751  Li1+  0.729  0.808  0.794  0.000
  Li4752  Li1+  0.792  0.867  0.789  0.000
  Li4765  Li1+  0.796  0.867  0.952  0.000
  Li4774  Li1+  0.604  0.929  0.831  0.000
  Li4776  Li1+  0.604  0.933  0.939  0.000
  Li4787  Li1+  0.608  0.929  0.994  0.000
  Li4793  Li1+  0.667  0.996  0.952  0.000
  Li4795  Li1+  0.729  0.804  0.831  0.000
  Li4815  Li1+  0.900  0.100  0.191  0.000
  Li4825  Li1+  0.804  0.133  0.175  0.000
  Li4839  Li1+  0.867  0.067  0.000  0.000
  Li4845  Li1+  0.933  0.004  0.139  0.000
  Li4846  Li1+  0.933  0.004  0.175  0.000
  Li4847  Li1+  0.929  0.008  0.194  0.000
  Li4848  Li1+  0.992  0.067  0.189  0.000
  Li4861  Li1+  0.996  0.067  0.352  0.000
  Li4873  Li1+  0.804  0.133  0.375  0.000
  Li4883  Li1+  0.808  0.129  0.394  0.000
  Li4885  Li1+  0.900  0.100  0.373  0.000
  Li4891  Li1+  0.929  0.004  0.231  0.000
  Li4892  Li1+  0.929  0.129  0.219  0.000
  Li4894  Li1+  0.933  0.004  0.375  0.000
  Li4915  Li1+  0.900  0.100  0.536  0.000
  Li4920  Li1+  0.804  0.133  0.539  0.000
  Li4933  Li1+  0.900  0.100  0.573  0.000
  Li4938  Li1+  0.867  0.192  0.589  0.000
  Li4940  Li1+  0.929  0.129  0.419  0.000
  Li4941  Li1+  0.933  0.004  0.539  0.000
  Li4944  Li1+  0.992  0.067  0.589  0.000
  Li4957  Li1+  0.996  0.067  0.752  0.000
  Li4963  Li1+  0.900  0.100  0.736  0.000
  Li4966  Li1+  0.804  0.129  0.631  0.000
  Li4968  Li1+  0.804  0.133  0.739  0.000
  Li4969  Li1+  0.804  0.133  0.775  0.000
  Li4979  Li1+  0.808  0.129  0.794  0.000
  Li4984  Li1+  0.867  0.067  0.636  0.000
  Li4985  Li1+  0.867  0.196  0.752  0.000
  Li4986  Li1+  0.867  0.192  0.789  0.000
  Li4988  Li1+  0.929  0.129  0.619  0.000
  Li4989  Li1+  0.933  0.004  0.739  0.000
  Li4990  Li1+  0.933  0.004  0.775  0.000
  Li4991  Li1+  0.929  0.008  0.794  0.000
  Li5005  Li1+  0.996  0.067  0.952  0.000
  Li5016  Li1+  0.804  0.133  0.939  0.000
  Li5029  Li1+  0.900  0.100  0.973  0.000
  Li5035  Li1+  0.929  0.004  0.831  0.000
  Li5036  Li1+  0.929  0.129  0.819  0.000
  Li5037  Li1+  0.933  0.004  0.939  0.000
  Li5038  Li1+  0.933  0.004  0.975  0.000
  Li5062  Li1+  0.804  0.329  0.031  0.000
  Li5064  Li1+  0.804  0.333  0.139  0.000
  Li5065  Li1+  0.804  0.333  0.175  0.000
  Li5079  Li1+  0.867  0.267  0.000  0.000
  Li5083  Li1+  0.929  0.204  0.031  0.000
  Li5085  Li1+  0.933  0.204  0.139  0.000
  Li5086  Li1+  0.933  0.204  0.175  0.000
  Li5088  Li1+  0.992  0.267  0.189  0.000
  Li5101  Li1+  0.996  0.267  0.352  0.000
  Li5103  Li1+  0.900  0.300  0.391  0.000
  Li5110  Li1+  0.804  0.329  0.231  0.000
  Li5113  Li1+  0.804  0.333  0.375  0.000
  Li5125  Li1+  0.900  0.300  0.373  0.000
  Li5129  Li1+  0.867  0.396  0.352  0.000
  Li5133  Li1+  0.933  0.204  0.339  0.000
  Li5136  Li1+  0.992  0.267  0.389  0.000
  Li5149  Li1+  0.996  0.267  0.552  0.000
  Li5158  Li1+  0.804  0.329  0.431  0.000
  Li5160  Li1+  0.804  0.333  0.539  0.000
  Li5161  Li1+  0.804  0.333  0.575  0.000
  Li5171  Li1+  0.808  0.329  0.594  0.000
  Li5173  Li1+  0.900  0.300  0.573  0.000
  Li5179  Li1+  0.929  0.204  0.431  0.000
  Li5184  Li1+  0.992  0.267  0.589  0.000
  Li5206  Li1+  0.804  0.329  0.631  0.000
  Li5208  Li1+  0.804  0.333  0.739  0.000
  Li5209  Li1+  0.804  0.333  0.775  0.000
  Li5219  Li1+  0.808  0.329  0.794  0.000
  Li5227  Li1+  0.929  0.204  0.631  0.000
  Li5245  Li1+  0.996  0.267  0.952  0.000
  Li5254  Li1+  0.804  0.329  0.831  0.000
  Li5273  Li1+  0.867  0.396  0.952  0.000
  Li5293  Li1+  0.996  0.467  0.152  0.000
  Li5302  Li1+  0.804  0.529  0.031  0.000
  Li5304  Li1+  0.804  0.533  0.139  0.000
  Li5305  Li1+  0.804  0.533  0.175  0.000
  Li5314  Li1+  0.900  0.500  0.154  0.000
  Li5315  Li1+  0.808  0.529  0.194  0.000
  Li5319  Li1+  0.867  0.467  0.000  0.000
  Li5323  Li1+  0.929  0.404  0.031  0.000
  Li5324  Li1+  0.929  0.529  0.019  0.000
  Li5325  Li1+  0.933  0.404  0.139  0.000
  Li5327  Li1+  0.929  0.408  0.194  0.000
  Li5328  Li1+  0.992  0.467  0.189  0.000
  Li5341  Li1+  0.996  0.467  0.352  0.000
  Li5352  Li1+  0.804  0.533  0.339  0.000
  Li5353  Li1+  0.804  0.533  0.375  0.000
  Li5363  Li1+  0.808  0.529  0.394  0.000
  Li5369  Li1+  0.867  0.596  0.352  0.000
  Li5371  Li1+  0.929  0.404  0.231  0.000
  Li5375  Li1+  0.929  0.408  0.394  0.000
  Li5398  Li1+  0.804  0.529  0.431  0.000
  Li5400  Li1+  0.804  0.533  0.539  0.000
  Li5401  Li1+  0.804  0.533  0.575  0.000
  Li5411  Li1+  0.808  0.529  0.594  0.000
  Li5413  Li1+  0.900  0.500  0.573  0.000
  Li5416  Li1+  0.867  0.467  0.436  0.000
  Li5419  Li1+  0.929  0.404  0.431  0.000
  Li5421  Li1+  0.933  0.404  0.539  0.000
  Li5424  Li1+  0.992  0.467  0.589  0.000
  Li5448  Li1+  0.804  0.533  0.739  0.000
  Li5459  Li1+  0.808  0.529  0.794  0.000
  Li5466  Li1+  0.867  0.592  0.789  0.000
  Li5470  Li1+  0.933  0.404  0.775  0.000
  Li5472  Li1+  0.992  0.467  0.789  0.000
  Li5485  Li1+  0.996  0.467  0.952  0.000
  Li5494  Li1+  0.804  0.529  0.831  0.000
  Li5496  Li1+  0.804  0.533  0.939  0.000
  Li5497  Li1+  0.804  0.533  0.975  0.000
  Li5507  Li1+  0.808  0.529  0.994  0.000
  Li5514  Li1+  0.867  0.592  0.989  0.000
  Li5517  Li1+  0.933  0.404  0.939  0.000
  Li5518  Li1+  0.933  0.404  0.975  0.000
  Li5520  Li1+  0.992  0.467  0.989  0.000
  Li5542  Li1+  0.804  0.729  0.031  0.000
  Li5544  Li1+  0.804  0.733  0.139  0.000
  Li5545  Li1+  0.804  0.733  0.175  0.000
  Li5555  Li1+  0.808  0.729  0.194  0.000
  Li5559  Li1+  0.867  0.667  0.000  0.000
  Li5560  Li1+  0.867  0.667  0.036  0.000
  Li5561  Li1+  0.867  0.796  0.152  0.000
  Li5562  Li1+  0.867  0.792  0.189  0.000
  Li5563  Li1+  0.929  0.604  0.031  0.000
  Li5565  Li1+  0.933  0.604  0.139  0.000
  Li5566  Li1+  0.933  0.604  0.175  0.000
  Li5567  Li1+  0.929  0.608  0.194  0.000
  Li5581  Li1+  0.996  0.667  0.352  0.000
  Li5592  Li1+  0.804  0.733  0.339  0.000
  Li5603  Li1+  0.808  0.729  0.394  0.000
  Li5607  Li1+  0.867  0.667  0.200  0.000
  Li5609  Li1+  0.867  0.796  0.352  0.000
  Li5611  Li1+  0.929  0.604  0.231  0.000
  Li5615  Li1+  0.929  0.608  0.394  0.000
  Li5631  Li1+  0.900  0.700  0.591  0.000
  Li5640  Li1+  0.804  0.733  0.539  0.000
  Li5651  Li1+  0.808  0.729  0.594  0.000
  Li5657  Li1+  0.867  0.796  0.552  0.000
  Li5658  Li1+  0.867  0.792  0.589  0.000
  Li5662  Li1+  0.933  0.604  0.575  0.000
  Li5663  Li1+  0.929  0.608  0.594  0.000
  Li5686  Li1+  0.804  0.729  0.631  0.000
  Li5689  Li1+  0.804  0.733  0.775  0.000
  Li5699  Li1+  0.808  0.729  0.794  0.000
  Li5704  Li1+  0.867  0.667  0.636  0.000
  Li5706  Li1+  0.867  0.792  0.789  0.000
  Li5708  Li1+  0.929  0.729  0.619  0.000
  Li5709  Li1+  0.933  0.604  0.739  0.000
  Li5712  Li1+  0.992  0.667  0.789  0.000
  Li5734  Li1+  0.804  0.729  0.831  0.000
  Li5747  Li1+  0.808  0.729  0.994  0.000
  Li5749  Li1+  0.900  0.700  0.973  0.000
  Li5751  Li1+  0.867  0.667  0.800  0.000
  Li5754  Li1+  0.867  0.792  0.989  0.000
  Li5755  Li1+  0.929  0.604  0.831  0.000
  Li5758  Li1+  0.933  0.604  0.975  0.000
  Li5759  Li1+  0.929  0.608  0.994  0.000
  Li5782  Li1+  0.804  0.929  0.031  0.000
  Li5784  Li1+  0.804  0.933  0.139  0.000
  Li5795  Li1+  0.808  0.929  0.194  0.000
  Li5803  Li1+  0.929  0.804  0.031  0.000
  Li5805  Li1+  0.933  0.804  0.139  0.000
  Li5806  Li1+  0.933  0.804  0.175  0.000
  Li5807  Li1+  0.929  0.808  0.194  0.000
  Li5808  Li1+  0.992  0.867  0.189  0.000
  Li5821  Li1+  0.996  0.867  0.352  0.000
  Li5832  Li1+  0.804  0.933  0.339  0.000
  Li5851  Li1+  0.929  0.804  0.231  0.000
  Li5852  Li1+  0.929  0.929  0.219  0.000
  Li5854  Li1+  0.933  0.804  0.375  0.000
  Li5856  Li1+  0.992  0.867  0.389  0.000
  Li5869  Li1+  0.996  0.867  0.552  0.000
  Li5878  Li1+  0.804  0.929  0.431  0.000
  Li5881  Li1+  0.804  0.933  0.575  0.000
  Li5891  Li1+  0.808  0.929  0.594  0.000
  Li5895  Li1+  0.867  0.867  0.400  0.000
  Li5897  Li1+  0.867  0.996  0.552  0.000
  Li5899  Li1+  0.929  0.804  0.431  0.000
  Li5900  Li1+  0.929  0.929  0.419  0.000
  Li5903  Li1+  0.929  0.808  0.594  0.000
  Li5904  Li1+  0.992  0.867  0.589  0.000
  Li5928  Li1+  0.804  0.933  0.739  0.000
  Li5939  Li1+  0.808  0.929  0.794  0.000
  Li5946  Li1+  0.867  0.992  0.789  0.000
  Li5947  Li1+  0.929  0.804  0.631  0.000
  Li5950  Li1+  0.933  0.804  0.775  0.000
  Li5952  Li1+  0.992  0.867  0.789  0.000
  Li5965  Li1+  0.996  0.867  0.952  0.000
  Li5974  Li1+  0.804  0.929  0.831  0.000
  Li5991  Li1+  0.867  0.867  0.800  0.000
  Li5993  Li1+  0.867  0.996  0.952  0.000
  Li5994  Li1+  0.867  0.992  0.989  0.000
  Li5995  Li1+  0.929  0.804  0.831  0.000
  Li6000  Li1+  0.992  0.867  0.989  0.000
  Li3589  Li1+  0.500  0.900  0.973  0.000
  Li4653  Li1+  0.733  0.804  0.339  0.000
  Li3111  Li1+  0.467  0.467  0.800  0.000
  Li1571  Li1+  0.208  0.329  0.594  0.000
  Li3692  Li1+  0.729  0.129  0.219  0.000
  Li4794  Li1+  0.667  0.992  0.989  0.000
  Li3000  Li1+  0.404  0.533  0.539  0.000
  Li4841  Li1+  0.867  0.196  0.152  0.000
  Li1628  Li1+  0.329  0.329  0.619  0.000
  Li4743  Li1+  0.667  0.867  0.600  0.001
  Li768  Li1+  0.192  0.667  0.189  0.001
  Li4265  Li1+  0.667  0.596  0.752  0.001
  Li1338  Li1+  0.267  0.192  0.589  0.001
  Li5802  Li1+  0.867  0.992  0.189  0.001
  Li2998  Li1+  0.404  0.529  0.431  0.001
  Li135  Li1+  0.067  0.067  0.400  0.001
  Li1342  Li1+  0.333  0.004  0.575  0.001
  Li2880  Li1+  0.592  0.267  0.989  0.001
  Li2377  Li1+  0.204  0.933  0.975  0.001
  Li3739  Li1+  0.729  0.004  0.431  0.001
  Li3160  Li1+  0.467  0.667  0.036  0.001
  Li3586  Li1+  0.500  0.900  0.954  0.001
  Li1856  Li1+  0.300  0.500  0.718  0.001
  Li1368  Li1+  0.204  0.133  0.739  0.001
  Li48  Li1+  0.192  0.067  0.189  0.001
  Li3064  Li1+  0.467  0.467  0.636  0.001
  Li5465  Li1+  0.867  0.596  0.752  0.002
  Li5027  Li1+  0.808  0.129  0.994  0.002
  Li3786  Li1+  0.667  0.192  0.789  0.002
  Li3975  Li1+  0.667  0.267  0.400  0.002
  Li1885  Li1+  0.396  0.467  0.952  0.002
  Li615  Li1+  0.067  0.467  0.400  0.002
  Li2778  Li1+  0.467  0.392  0.589  0.003
  Li4441  Li1+  0.604  0.733  0.575  0.003
  Li3593  Li1+  0.467  0.996  0.952  0.003
  Li3456  Li1+  0.592  0.867  0.389  0.003
  Li4844  Li1+  0.929  0.129  0.019  0.003
  Li576  Li1+  0.192  0.467  0.389  0.003
  Li4606  Li1+  0.733  0.804  0.175  0.003
  Li1049  Li1+  0.067  0.996  0.352  0.003
  Li3327  Li1+  0.500  0.700  0.991  0.003
  Li2760  Li1+  0.404  0.333  0.539  0.003
  Li1234  Li1+  0.300  0.100  0.154  0.003
  Li2674  Li1+  0.500  0.300  0.154  0.003
  Li5896  Li1+  0.867  0.867  0.436  0.003
  Li2509  Li1+  0.596  0.067  0.552  0.003
  Li765  Li1+  0.133  0.604  0.139  0.003
  Li233  Li1+  0.067  0.196  0.952  0.003
  Li5703  Li1+  0.867  0.667  0.600  0.003
  Li5178  Li1+  0.867  0.392  0.589  0.003
  Li3358  Li1+  0.533  0.604  0.975  0.004
  Li5659  Li1+  0.929  0.604  0.431  0.004
  Li4314  Li1+  0.667  0.592  0.989  0.004
  Li4506  Li1+  0.667  0.792  0.789  0.004
  Li4791  Li1+  0.667  0.867  0.800  0.004
  Li5613  Li1+  0.933  0.604  0.339  0.004
  Li523  Li1+  0.129  0.404  0.031  0.004
  Li3262  Li1+  0.533  0.604  0.575  0.004
  Li5197  Li1+  0.996  0.267  0.752  0.004
  Li2856  Li1+  0.404  0.333  0.939  0.004
  Li1625  Li1+  0.267  0.396  0.752  0.004
  Li2923  Li1+  0.529  0.404  0.031  0.004
  Li70  Li1+  0.004  0.129  0.231  0.004
  Li286  Li1+  0.133  0.204  0.175  0.004
  Li5177  Li1+  0.867  0.396  0.552  0.004
  Li4701  Li1+  0.733  0.804  0.539  0.004
  Li4459  Li1+  0.729  0.604  0.431  0.005
  Li3403  Li1+  0.529  0.804  0.031  0.005
  Li2823  Li1+  0.467  0.267  0.600  0.005
  Li3117  Li1+  0.533  0.404  0.939  0.005
  Li810  Li1+  0.067  0.792  0.389  0.005
  Li5875  Li1+  0.900  0.900  0.536  0.005
  Li373  Li1+  0.100  0.300  0.573  0.005
  Li1915  Li1+  0.329  0.404  0.831  0.005
  Li957  Li1+  0.133  0.604  0.939  0.005
  Li3309  Li1+  0.533  0.604  0.739  0.005
  Li5600  Li1+  0.900  0.700  0.318  0.006
  Li240  Li1+  0.192  0.067  0.989  0.006
  Li2617  Li1+  0.404  0.133  0.975  0.006
  Li888  Li1+  0.004  0.733  0.739  0.006
  Li4066  Li1+  0.700  0.300  0.954  0.006
  Li159  Li1+  0.100  0.100  0.791  0.006
  Li5996  Li1+  0.929  0.929  0.819  0.006
  Li5395  Li1+  0.900  0.500  0.536  0.006
  Li2731  Li1+  0.529  0.204  0.231  0.006
  Li2110  Li1+  0.333  0.604  0.775  0.006
  Li3303  Li1+  0.467  0.667  0.600  0.006
  Li2854  Li1+  0.404  0.329  0.831  0.006
  Li5753  Li1+  0.867  0.796  0.952  0.006
  Li3469  Li1+  0.596  0.867  0.552  0.006
  Li861  Li1+  0.133  0.604  0.539  0.006
  Li46  Li1+  0.133  0.004  0.175  0.006
  Li5199  Li1+  0.900  0.300  0.791  0.006
  Li1896  Li1+  0.204  0.533  0.939  0.007
  Li3639  Li1+  0.667  0.067  0.000  0.007
  Li665  Li1+  0.067  0.596  0.752  0.007
  Li4413  Li1+  0.733  0.604  0.339  0.007
  Li2537  Li1+  0.467  0.196  0.552  0.007
  Li1767  Li1+  0.267  0.467  0.200  0.007
  Li3354  Li1+  0.467  0.792  0.989  0.007
  Li2544  Li1+  0.592  0.067  0.589  0.007
  Li1382  Li1+  0.300  0.100  0.700  0.007
  Li1081  Li1+  0.004  0.933  0.575  0.007
  Li5039  Li1+  0.929  0.008  0.994  0.008
  Li1702  Li1+  0.204  0.529  0.031  0.008
  Li2492  Li1+  0.529  0.129  0.219  0.008
  Li4909  Li1+  0.996  0.067  0.552  0.008
  Li1146  Li1+  0.067  0.992  0.789  0.008
  Li2059  Li1+  0.329  0.604  0.431  0.008
  Li2920  Li1+  0.467  0.467  0.036  0.008
  Li5320  Li1+  0.867  0.467  0.036  0.008
  Li4270  Li1+  0.733  0.404  0.775  0.008
  Li2204  Li1+  0.329  0.929  0.019  0.008
  Li5278  Li1+  0.933  0.204  0.975  0.008
  Li1819  Li1+  0.329  0.404  0.431  0.008
  Li190  Li1+  0.133  0.004  0.775  0.008
  Li1477  Li1+  0.300  0.300  0.173  0.008
  Li3587  Li1+  0.408  0.929  0.994  0.008
  Li3670  Li1+  0.604  0.129  0.231  0.008
  Li5469  Li1+  0.933  0.404  0.739  0.008
  Li857  Li1+  0.067  0.796  0.552  0.008
  Li5175  Li1+  0.867  0.267  0.400  0.008
  Li1816  Li1+  0.267  0.467  0.436  0.008
  Li3071  Li1+  0.529  0.408  0.794  0.008
  Li4534  Li1+  0.604  0.729  0.831  0.008
  Li3624  Li1+  0.604  0.133  0.139  0.008
  Li2329  Li1+  0.204  0.933  0.775  0.008
  Li3565  Li1+  0.596  0.867  0.952  0.009
  Li3096  Li1+  0.404  0.533  0.939  0.009
  Li3087  Li1+  0.500  0.500  0.991  0.009
  Li2011  Li1+  0.329  0.604  0.231  0.009
  Li2287  Li1+  0.300  0.900  0.482  0.009
  Li5997  Li1+  0.933  0.804  0.939  0.009
  Li5422  Li1+  0.933  0.404  0.575  0.009
  Li4700  Li1+  0.729  0.929  0.419  0.009
  Li5775  Li1+  0.900  0.900  0.191  0.009
  Li377  Li1+  0.067  0.396  0.552  0.009
  Li685  Li1+  0.196  0.467  0.952  0.009
  Li3408  Li1+  0.592  0.867  0.189  0.009
  Li4056  Li1+  0.604  0.333  0.939  0.009
  Li2682  Li1+  0.467  0.392  0.189  0.009
  Li169  Li1+  0.004  0.133  0.775  0.009
  Li951  Li1+  0.067  0.667  0.800  0.009
  Li5987  Li1+  0.808  0.929  0.994  0.009
  Li4834  Li1+  0.900  0.100  0.154  0.009
  Li3046  Li1+  0.404  0.529  0.631  0.009
  Li656  Li1+  0.100  0.500  0.718  0.009
  Li428  Li1+  0.129  0.329  0.619  0.009
  Li3929  Li1+  0.667  0.396  0.352  0.010
  Li3831  Li1+  0.667  0.067  0.800  0.010
  Li3015  Li1+  0.467  0.467  0.400  0.010
  Li2924  Li1+  0.529  0.529  0.019  0.010
  Li4311  Li1+  0.667  0.467  0.800  0.010
  Li5423  Li1+  0.929  0.408  0.594  0.010
  Li1576  Li1+  0.267  0.267  0.436  0.010
  Li5322  Li1+  0.867  0.592  0.189  0.010
  Li5321  Li1+  0.867  0.596  0.152  0.010
  Li3356  Li1+  0.529  0.729  0.819  0.010
  Li2415  Li1+  0.500  0.100  0.191  0.010
  Li3240  Li1+  0.404  0.733  0.539  0.011
  Li3144  Li1+  0.404  0.733  0.139  0.011
  Li1273  Li1+  0.204  0.133  0.375  0.011
  Li1001  Li1+  0.067  0.996  0.152  0.011
  Li5372  Li1+  0.929  0.529  0.219  0.011
  Li4943  Li1+  0.929  0.008  0.594  0.011
  Li3161  Li1+  0.467  0.796  0.152  0.011
  Li287  Li1+  0.129  0.208  0.194  0.011
  Li1770  Li1+  0.267  0.592  0.389  0.011
  Li5847  Li1+  0.867  0.867  0.200  0.011
  Li5590  Li1+  0.804  0.729  0.231  0.011
  Li5677  Li1+  0.996  0.667  0.752  0.011
  Li3813  Li1+  0.750  0.146  0.832  0.011
  Li4798  Li1+  0.733  0.804  0.975  0.011
  Li139  Li1+  0.129  0.004  0.431  0.011
  Li4643  Li1+  0.608  0.929  0.394  0.011
  Li1244  Li1+  0.329  0.129  0.019  0.012
  Li4647  Li1+  0.667  0.867  0.200  0.012
  Li5151  Li1+  0.900  0.300  0.591  0.012
  Li2535  Li1+  0.467  0.067  0.400  0.012
  Li1263  Li1+  0.300  0.100  0.391  0.012
  Li2386  Li1+  0.300  0.900  0.954  0.012
  Li3550  Li1+  0.533  0.804  0.775  0.012
  Li3447  Li1+  0.467  0.867  0.200  0.012
  Li1191  Li1+  0.067  0.867  0.800  0.012
  Li3399  Li1+  0.467  0.867  0.000  0.012
  Li2808  Li1+  0.404  0.333  0.739  0.012
  Li2776  Li1+  0.467  0.267  0.436  0.012
  Li5736  Li1+  0.804  0.733  0.939  0.012
  Li4173  Li1+  0.733  0.404  0.339  0.012
  Li3301  Li1+  0.500  0.700  0.773  0.012
  Li2009  Li1+  0.267  0.796  0.352  0.013
  Li4414  Li1+  0.733  0.604  0.375  0.013
  Li2400  Li1+  0.392  0.867  0.989  0.013
  Li1671  Li1+  0.267  0.267  0.800  0.013
  Li4669  Li1+  0.796  0.867  0.552  0.013
  Li4992  Li1+  0.992  0.067  0.789  0.013
  Li2632  Li1+  0.467  0.067  0.836  0.013
  Li5376  Li1+  0.992  0.467  0.389  0.013
  Li2304  Li1+  0.392  0.867  0.589  0.013
  Li2797  Li1+  0.596  0.267  0.752  0.013
  Li1820  Li1+  0.329  0.529  0.419  0.013
  Li2563  Li1+  0.500  0.100  0.736  0.013
  Li3209  Li1+  0.467  0.796  0.352  0.013
  Li2730  Li1+  0.467  0.392  0.389  0.013
  Li2626  Li1+  0.500  0.100  0.954  0.013
  Li1599  Li1+  0.300  0.300  0.791  0.013
  Li4218  Li1+  0.667  0.592  0.589  0.013
  Li1917  Li1+  0.333  0.404  0.939  0.014
  Li2445  Li1+  0.533  0.004  0.139  0.014
  Li2636  Li1+  0.529  0.129  0.819  0.014
  Li1768  Li1+  0.267  0.467  0.236  0.014
  Li4479  Li1+  0.700  0.700  0.791  0.014
  Li3398  Li1+  0.500  0.900  0.100  0.014
  Li2343  Li1+  0.267  0.867  0.600  0.014
  Li4835  Li1+  0.808  0.129  0.194  0.014
  Li2439  Li1+  0.467  0.067  0.000  0.014
  Li5773  Li1+  0.996  0.867  0.152  0.014
  Li3255  Li1+  0.467  0.667  0.400  0.014
  Li1243  Li1+  0.329  0.004  0.031  0.014
  Li5276  Li1+  0.929  0.329  0.819  0.014
  Li1119  Li1+  0.100  0.900  0.791  0.014
  Li862  Li1+  0.133  0.604  0.575  0.014
  Li672  Li1+  0.192  0.467  0.789  0.014
  Li1242  Li1+  0.267  0.192  0.189  0.014
  Li2829  Li1+  0.533  0.204  0.739  0.014
  Li5389  Li1+  0.996  0.467  0.552  0.014
  Li3732  Li1+  0.696  0.096  0.428  0.014
  Li5785  Li1+  0.804  0.933  0.175  0.014
  Li5059  Li1+  0.900  0.300  0.136  0.015
  Li4362  Li1+  0.667  0.792  0.189  0.015
  Li691  Li1+  0.100  0.500  0.936  0.015
  Li5949  Li1+  0.933  0.804  0.739  0.015
  Li1333  Li1+  0.300  0.100  0.573  0.015
  Li1385  Li1+  0.267  0.196  0.752  0.015
  Li5853  Li1+  0.933  0.804  0.339  0.015
  Li2008  Li1+  0.267  0.667  0.236  0.015
  Li5849  Li1+  0.867  0.996  0.352  0.015
  Li4067  Li1+  0.608  0.329  0.994  0.015
  Li1580  Li1+  0.329  0.329  0.419  0.015
  Li2256  Li1+  0.392  0.867  0.389  0.015
  Li5757  Li1+  0.933  0.604  0.939  0.015
  Li1048  Li1+  0.067  0.867  0.236  0.015
  Li3826  Li1+  0.700  0.100  0.954  0.015
  Li4549  Li1+  0.700  0.700  0.973  0.015
  Li4438  Li1+  0.604  0.729  0.431  0.016
  Li4024  Li1+  0.667  0.267  0.636  0.016
  Li2921  Li1+  0.467  0.596  0.152  0.016
  Li2968  Li1+  0.467  0.467  0.236  0.016
  Li5512  Li1+  0.867  0.467  0.836  0.016
  Li2003  Li1+  0.208  0.729  0.394  0.016
  Li4111  Li1+  0.700  0.500  0.082  0.016
  Li5257  Li1+  0.804  0.333  0.975  0.016
  Li3782  Li1+  0.700  0.100  0.700  0.016
  Li176  Li1+  0.100  0.100  0.718  0.016
  Li13  Li1+  0.196  0.067  0.152  0.016
  Li1246  Li1+  0.333  0.004  0.175  0.016
  Li5848  Li1+  0.867  0.867  0.236  0.016
  Li3260  Li1+  0.529  0.729  0.419  0.016
  Li4936  Li1+  0.867  0.067  0.436  0.016
  Li522  Li1+  0.067  0.592  0.189  0.016
  Li3887  Li1+  0.729  0.208  0.194  0.016
  Li1335  Li1+  0.267  0.067  0.400  0.016
  Li1321  Li1+  0.204  0.133  0.575  0.016
  Li5277  Li1+  0.933  0.204  0.939  0.017
  Li4263  Li1+  0.667  0.467  0.600  0.017
  Li264  Li1+  0.004  0.333  0.139  0.017
  Li1704  Li1+  0.204  0.533  0.139  0.017
  Li3279  Li1+  0.500  0.700  0.791  0.017
  Li1822  Li1+  0.333  0.404  0.575  0.017
  Li4510  Li1+  0.733  0.604  0.775  0.017
  Li5417  Li1+  0.867  0.596  0.552  0.017
  Li2185  Li1+  0.204  0.933  0.175  0.017
  Li5007  Li1+  0.900  0.100  0.991  0.017
  Li2483  Li1+  0.408  0.129  0.394  0.017
  Li466  Li1+  0.100  0.300  0.954  0.017
  Li2291  Li1+  0.208  0.929  0.594  0.017
  Li4032  Li1+  0.792  0.267  0.789  0.017
  Li3809  Li1+  0.750  0.150  0.886  0.018
  Li5017  Li1+  0.804  0.133  0.975  0.018
  Li5929  Li1+  0.804  0.933  0.775  0.018
  Li5437  Li1+  0.996  0.467  0.752  0.018
  Li3879  Li1+  0.667  0.267  0.000  0.018
  Li3817  Li1+  0.604  0.133  0.975  0.018
  Li3059  Li1+  0.408  0.529  0.794  0.018
  Li2494  Li1+  0.533  0.004  0.375  0.018
  Li1522  Li1+  0.300  0.300  0.354  0.018
  Li1743  Li1+  0.300  0.500  0.391  0.018
  Li5943  Li1+  0.867  0.867  0.600  0.018
  Li2831  Li1+  0.529  0.208  0.794  0.018
  Li4824  Li1+  0.804  0.133  0.139  0.018
  Li4410  Li1+  0.667  0.792  0.389  0.018
  Li375  Li1+  0.067  0.267  0.400  0.018
  Li1961  Li1+  0.267  0.796  0.152  0.018
  Li5127  Li1+  0.867  0.267  0.200  0.018
  Li2149  Li1+  0.300  0.700  0.973  0.019
  Li1102  Li1+  0.133  0.804  0.575  0.019
  Li3159  Li1+  0.467  0.667  0.000  0.019
  Li608  Li1+  0.100  0.500  0.518  0.019
  Li3259  Li1+  0.529  0.604  0.431  0.019
  Li90  Li1+  0.067  0.192  0.389  0.019
  Li4870  Li1+  0.804  0.129  0.231  0.019
  Li4358  Li1+  0.700  0.700  0.100  0.019
  Li4155  Li1+  0.750  0.550  0.396  0.019
  Li1413  Li1+  0.350  0.146  0.832  0.019
  Li141  Li1+  0.133  0.004  0.539  0.020
  Li5134  Li1+  0.933  0.204  0.375  0.020
  Li3023  Li1+  0.529  0.408  0.594  0.020
  Li282  Li1+  0.067  0.392  0.189  0.020
  Li2040  Li1+  0.204  0.733  0.539  0.020
  Li4842  Li1+  0.867  0.192  0.189  0.020
  Li1914  Li1+  0.267  0.592  0.989  0.020
  Li1726  Li1+  0.333  0.404  0.175  0.020
  Li2108  Li1+  0.329  0.729  0.619  0.020
  Li3213  Li1+  0.533  0.604  0.339  0.020
  Li3619  Li1+  0.700  0.100  0.136  0.020
  Li2631  Li1+  0.467  0.067  0.800  0.020
  Li3112  Li1+  0.467  0.467  0.836  0.020
  Li4456  Li1+  0.667  0.667  0.436  0.020
  Li1990  Li1+  0.204  0.729  0.231  0.020
  Li3837  Li1+  0.733  0.004  0.939  0.020
  Li5661  Li1+  0.933  0.604  0.539  0.021
  Li1823  Li1+  0.329  0.408  0.594  0.021
  Li5032  Li1+  0.867  0.067  0.836  0.021
  Li4268  Li1+  0.729  0.529  0.619  0.021
  Li2391  Li1+  0.267  0.867  0.800  0.021
  Li3736  Li1+  0.667  0.067  0.436  0.021
  Li5220  Li1+  0.896  0.296  0.628  0.021
  Li3352  Li1+  0.467  0.667  0.836  0.021
  Li130  Li1+  0.100  0.100  0.554  0.022
  Li3689  Li1+  0.667  0.196  0.352  0.022
  Li5583  Li1+  0.900  0.700  0.391  0.022
  Li2446  Li1+  0.533  0.004  0.175  0.022
  Li3430  Li1+  0.404  0.929  0.231  0.022
  Li2419  Li1+  0.500  0.100  0.136  0.022
  Li451  Li1+  0.100  0.300  0.936  0.022
  Li1760  Li1+  0.300  0.500  0.318  0.022
  Li5464  Li1+  0.867  0.467  0.636  0.022
  Li1426  Li1+  0.300  0.100  0.954  0.022
  Li4575  Li1+  0.700  0.900  0.191  0.022
  Li5945  Li1+  0.867  0.996  0.752  0.022
  Li2922  Li1+  0.467  0.592  0.189  0.022
  Li4407  Li1+  0.667  0.667  0.200  0.022
  Li859  Li1+  0.129  0.604  0.431  0.022
  Li1800  Li1+  0.204  0.533  0.539  0.022
  Li1527  Li1+  0.267  0.267  0.200  0.023
  Li1485  Li1+  0.333  0.204  0.139  0.023
  Li906  Li1+  0.067  0.792  0.789  0.023
  Li5511  Li1+  0.867  0.467  0.800  0.023
  Li472  Li1+  0.067  0.267  0.836  0.023
  Li3305  Li1+  0.467  0.796  0.752  0.023
  Li323  Li1+  0.008  0.329  0.394  0.023
  Li1245  Li1+  0.333  0.004  0.139  0.023
  Li5033  Li1+  0.867  0.196  0.952  0.023
  Li1573  Li1+  0.300  0.300  0.573  0.023
  Li456  Li1+  0.004  0.333  0.939  0.023
  Li4334  Li1+  0.700  0.700  0.064  0.023
  Li5269  Li1+  0.900  0.300  0.973  0.024
  Li1944  Li1+  0.204  0.733  0.139  0.024
  Li2392  Li1+  0.267  0.867  0.836  0.024
  Li4462  Li1+  0.733  0.604  0.575  0.024
  Li2437  Li1+  0.500  0.100  0.173  0.024
  Li3691  Li1+  0.729  0.004  0.231  0.024
  Li5999  Li1+  0.929  0.808  0.994  0.024
  Li5391  Li1+  0.900  0.500  0.591  0.024
  Li4813  Li1+  0.996  0.067  0.152  0.024
  Li5710  Li1+  0.933  0.604  0.775  0.024
  Li5275  Li1+  0.929  0.204  0.831  0.024
  Li4246  Li1+  0.604  0.529  0.631  0.024
  Li85  Li1+  0.100  0.100  0.373  0.024
  Li3448  Li1+  0.467  0.867  0.236  0.024
  Li5516  Li1+  0.929  0.529  0.819  0.025
  Li4366  Li1+  0.733  0.604  0.175  0.025
  Li3862  Li1+  0.604  0.329  0.031  0.025
  Li2348  Li1+  0.329  0.929  0.619  0.025
  Li2041  Li1+  0.204  0.733  0.575  0.025
  Li3548  Li1+  0.529  0.929  0.619  0.025
  Li2915  Li1+  0.408  0.529  0.194  0.025
  Li1389  Li1+  0.333  0.004  0.739  0.025
  Li591  Li1+  0.100  0.500  0.591  0.025
  Li3011  Li1+  0.408  0.529  0.594  0.025
  Li5180  Li1+  0.929  0.329  0.419  0.025
  Li4942  Li1+  0.933  0.004  0.575  0.025
  Li520  Li1+  0.067  0.467  0.036  0.025
  Li5271  Li1+  0.867  0.267  0.800  0.025
  Li285  Li1+  0.133  0.204  0.139  0.025
  Li3357  Li1+  0.533  0.604  0.939  0.025
  Li3807  Li1+  0.700  0.100  0.991  0.026
  Li4822  Li1+  0.804  0.129  0.031  0.026
  Li82  Li1+  0.100  0.100  0.354  0.026
  Li560  Li1+  0.100  0.500  0.318  0.026
  Li5746  Li1+  0.900  0.700  0.954  0.026
  Li5926  Li1+  0.804  0.929  0.631  0.026
  Li4267  Li1+  0.729  0.404  0.631  0.026
  Li4076  Li1+  0.729  0.329  0.819  0.026
  Li329  Li1+  0.067  0.396  0.352  0.026
  Li814  Li1+  0.133  0.604  0.375  0.026
  Li3308  Li1+  0.529  0.729  0.619  0.026
  Li5267  Li1+  0.808  0.329  0.994  0.027
  Li4840  Li1+  0.867  0.067  0.036  0.027
  Li3912  Li1+  0.604  0.333  0.339  0.027
  Li5420  Li1+  0.929  0.529  0.419  0.027
  Li2542  Li1+  0.533  0.004  0.575  0.027
  Li2541  Li1+  0.533  0.004  0.539  0.028
  Li1577  Li1+  0.267  0.396  0.552  0.028
  Li1503  Li1+  0.300  0.300  0.391  0.028
  Li1486  Li1+  0.333  0.204  0.175  0.028
  Li1705  Li1+  0.204  0.533  0.175  0.028
  Li4119  Li1+  0.667  0.467  0.000  0.028
  Li2055  Li1+  0.267  0.667  0.400  0.028
  Li3168  Li1+  0.592  0.667  0.189  0.028
  Li4777  Li1+  0.604  0.933  0.975  0.029
  Li4294  Li1+  0.604  0.529  0.831  0.029
  Li2050  Li1+  0.300  0.700  0.554  0.029
  Li1293  Li1+  0.333  0.004  0.339  0.029
  Li1433  Li1+  0.267  0.196  0.952  0.029
  Li1512  Li1+  0.204  0.333  0.339  0.029
  Li4392  Li1+  0.604  0.733  0.339  0.029
  Li2490  Li1+  0.467  0.192  0.389  0.029
  Li5901  Li1+  0.933  0.804  0.539  0.030
  Li2120  Li1+  0.250  0.650  0.859  0.030
  Li1247  Li1+  0.329  0.008  0.194  0.030
  Li1918  Li1+  0.333  0.404  0.975  0.030
  Li5181  Li1+  0.933  0.204  0.539  0.030
  Li3384  Li1+  0.404  0.933  0.139  0.030
  Li5635  Li1+  0.900  0.700  0.536  0.031
  Li1145  Li1+  0.067  0.996  0.752  0.031
  Li2580  Li1+  0.496  0.096  0.628  0.031
  Li2339  Li1+  0.208  0.929  0.794  0.031
  Li5053  Li1+  0.996  0.267  0.152  0.031
  Li4128  Li1+  0.792  0.467  0.189  0.031
  Li219  Li1+  0.150  0.150  0.996  0.031
  Li1848  Li1+  0.204  0.533  0.739  0.031
  Li4105  Li1+  0.604  0.533  0.175  0.031
  Li3212  Li1+  0.529  0.729  0.219  0.031
  Li2824  Li1+  0.467  0.267  0.636  0.031
  Li476  Li1+  0.129  0.329  0.819  0.032
  Li1959  Li1+  0.267  0.667  0.000  0.032
  Li469  Li1+  0.100  0.300  0.973  0.032
  Li3814  Li1+  0.604  0.129  0.831  0.032
  Li505  Li1+  0.004  0.533  0.175  0.032
  Li4028  Li1+  0.729  0.329  0.619  0.032
  Li2280  Li1+  0.204  0.933  0.539  0.032
  Li1002  Li1+  0.067  0.992  0.189  0.032
  Li5251  Li1+  0.900  0.300  0.936  0.032
  Li668  Li1+  0.129  0.529  0.619  0.032
  Li3109  Li1+  0.500  0.500  0.973  0.032
  Li229  Li1+  0.100  0.100  0.973  0.032
  Li4585  Li1+  0.604  0.933  0.175  0.032
  Li1863  Li1+  0.267  0.467  0.600  0.032
  Li1196  Li1+  0.129  0.929  0.819  0.033
  Li4019  Li1+  0.608  0.329  0.794  0.033
  Li5415  Li1+  0.867  0.467  0.400  0.033
  Li3072  Li1+  0.592  0.467  0.789  0.033
  Li5460  Li1+  0.896  0.496  0.628  0.033
  Li3113  Li1+  0.467  0.596  0.952  0.033
  Li2088  Li1+  0.204  0.733  0.739  0.033
  Li4313  Li1+  0.667  0.596  0.952  0.033
  Li711  Li1+  0.067  0.467  0.800  0.033
  Li720  Li1+  0.192  0.467  0.989  0.033
  Li704  Li1+  0.100  0.500  0.918  0.033
  Li2579  Li1+  0.408  0.129  0.794  0.034
  Li3718  Li1+  0.604  0.129  0.431  0.034
  Li2536  Li1+  0.467  0.067  0.436  0.034
  Li471  Li1+  0.067  0.267  0.800  0.034
  Li2905  Li1+  0.404  0.533  0.175  0.034
  Li1960  Li1+  0.267  0.667  0.036  0.034
  Li5998  Li1+  0.933  0.804  0.975  0.034
  Li659  Li1+  0.008  0.529  0.794  0.034
  Li2349  Li1+  0.333  0.804  0.739  0.034
  Li1177  Li1+  0.004  0.933  0.975  0.035
  Li5944  Li1+  0.867  0.867  0.636  0.035
  Li4153  Li1+  0.604  0.533  0.375  0.035
  Li5410  Li1+  0.900  0.500  0.554  0.035
  Li4239  Li1+  0.700  0.500  0.791  0.035
  Li2156  Li1+  0.329  0.729  0.819  0.035
  Li88  Li1+  0.067  0.067  0.236  0.035
  Li3538  Li1+  0.500  0.900  0.754  0.035
  Li1575  Li1+  0.267  0.267  0.400  0.035
  Li5461  Li1+  0.900  0.500  0.773  0.035
  Li1198  Li1+  0.133  0.804  0.975  0.035
  Li4799  Li1+  0.729  0.808  0.994  0.035
  Li3829  Li1+  0.700  0.100  0.973  0.036
  Li1197  Li1+  0.133  0.804  0.939  0.036
  Li3392  Li1+  0.500  0.900  0.118  0.036
  Li3543  Li1+  0.467  0.867  0.600  0.036
  Li334  Li1+  0.133  0.204  0.375  0.036
  Li2005  Li1+  0.300  0.700  0.373  0.036
  Li696  Li1+  0.004  0.533  0.939  0.036
  Li4888  Li1+  0.867  0.067  0.236  0.036
  Li4551  Li1+  0.667  0.667  0.800  0.036
  Li3452  Li1+  0.529  0.929  0.219  0.036
  Li83  Li1+  0.008  0.129  0.394  0.036
  Li1894  Li1+  0.204  0.529  0.831  0.037
  Li1619  Li1+  0.208  0.329  0.794  0.037
  Li984  Li1+  0.004  0.933  0.139  0.037
  Li2173  Li1+  0.396  0.867  0.152  0.037
  Li2684  Li1+  0.529  0.329  0.019  0.038
  Li4558  Li1+  0.733  0.604  0.975  0.038
  Li3491  Li1+  0.408  0.929  0.594  0.038
  Li4191  Li1+  0.700  0.500  0.591  0.038
  Li3545  Li1+  0.467  0.996  0.752  0.038
  Li5652  Li1+  0.896  0.696  0.428  0.038
  Li879  Li1+  0.100  0.700  0.791  0.038
  Li3790  Li1+  0.733  0.004  0.775  0.038
  Li4308  Li1+  0.696  0.496  0.828  0.038
  Li4748  Li1+  0.729  0.929  0.619  0.039
  Li4333  Li1+  0.796  0.667  0.152  0.039
  Li4921  Li1+  0.804  0.133  0.575  0.039
  Li73  Li1+  0.004  0.133  0.375  0.039
  Li742  Li1+  0.004  0.729  0.031  0.039
  Li4511  Li1+  0.729  0.608  0.794  0.039
  Li3805  Li1+  0.796  0.067  0.952  0.039
  Li4696  Li1+  0.667  0.867  0.436  0.039
  Li4306  Li1+  0.700  0.500  0.954  0.039
  Li1097  Li1+  0.067  0.996  0.552  0.039
  Li4600  Li1+  0.667  0.867  0.036  0.039
  Li1326  Li1+  0.296  0.096  0.410  0.039
  Li5081  Li1+  0.867  0.396  0.152  0.040
  Li301  Li1+  0.196  0.267  0.352  0.040
  Li5130  Li1+  0.867  0.392  0.389  0.040
  Li4162  Li1+  0.700  0.500  0.354  0.040
  Li5850  Li1+  0.867  0.992  0.389  0.040
  Li5992  Li1+  0.867  0.867  0.836  0.040
  Li5168  Li1+  0.900  0.300  0.518  0.040
  Li4023  Li1+  0.667  0.267  0.600  0.040
  Li848  Li1+  0.100  0.700  0.518  0.040
  Li4790  Li1+  0.700  0.900  0.900  0.041
  Li2347  Li1+  0.329  0.804  0.631  0.041
  Li1954  Li1+  0.300  0.700  0.154  0.041
  Li4502  Li1+  0.700  0.700  0.700  0.041
  Li547  Li1+  0.100  0.500  0.336  0.041
  Li624  Li1+  0.192  0.467  0.589  0.042
  Li5967  Li1+  0.900  0.900  0.991  0.042
  Li5230  Li1+  0.933  0.204  0.775  0.042
  Li616  Li1+  0.067  0.467  0.436  0.042
  Li5871  Li1+  0.900  0.900  0.591  0.042
  Li1570  Li1+  0.300  0.300  0.554  0.042
  Li3872  Li1+  0.700  0.300  0.118  0.042
  Li5087  Li1+  0.929  0.208  0.194  0.042
  Li4935  Li1+  0.867  0.067  0.400  0.042
  Li889  Li1+  0.004  0.733  0.775  0.043
  Li2710  Li1+  0.404  0.329  0.231  0.043
  Li5467  Li1+  0.929  0.404  0.631  0.044
  Li3202  Li1+  0.500  0.700  0.354  0.044
  Li2012  Li1+  0.329  0.729  0.219  0.044
  Li2189  Li1+  0.350  0.946  0.014  0.044
  Li1213  Li1+  0.396  0.067  0.152  0.044
  Li3551  Li1+  0.529  0.808  0.794  0.044
  Li2247  Li1+  0.267  0.867  0.200  0.044
  Li3672  Li1+  0.604  0.133  0.339  0.045
  Li3640  Li1+  0.667  0.067  0.036  0.045
  Li3757  Li1+  0.796  0.067  0.752  0.045
  Li3981  Li1+  0.733  0.204  0.539  0.045
  Li1100  Li1+  0.129  0.929  0.419  0.045
  Li1677  Li1+  0.333  0.204  0.939  0.045
  Li937  Li1+  0.004  0.733  0.975  0.045
  Li1078  Li1+  0.004  0.929  0.431  0.046
  Li3688  Li1+  0.667  0.067  0.236  0.046
  Li2413  Li1+  0.596  0.067  0.152  0.046
  Li1843  Li1+  0.300  0.500  0.736  0.046
  Li4208  Li1+  0.700  0.500  0.518  0.046
  Li425  Li1+  0.067  0.396  0.752  0.046
  Li5418  Li1+  0.867  0.592  0.589  0.046
  Li5977  Li1+  0.804  0.933  0.975  0.046
  Li3067  Li1+  0.529  0.404  0.631  0.046
  Li1627  Li1+  0.329  0.204  0.631  0.046
  Li92  Li1+  0.129  0.129  0.219  0.046
  Li3595  Li1+  0.529  0.804  0.831  0.047
  Li1283  Li1+  0.208  0.129  0.394  0.047
  Li5629  Li1+  0.996  0.667  0.552  0.047
  Li1378  Li1+  0.300  0.100  0.754  0.047
  Li5031  Li1+  0.867  0.067  0.800  0.047
  Li5509  Li1+  0.900  0.500  0.973  0.048
  Li808  Li1+  0.067  0.667  0.236  0.048
  Li5641  Li1+  0.804  0.733  0.575  0.048
  Li3646  Li1+  0.733  0.004  0.175  0.048
  Li3013  Li1+  0.500  0.500  0.573  0.048
  Li2201  Li1+  0.267  0.996  0.152  0.049
  Li4224  Li1+  0.792  0.467  0.589  0.049
  Li4918  Li1+  0.804  0.129  0.431  0.049
  Li5554  Li1+  0.900  0.700  0.154  0.049
  Li2679  Li1+  0.467  0.267  0.000  0.049
  Li493  Li1+  0.196  0.467  0.152  0.049
  Li5224  Li1+  0.867  0.267  0.636  0.050
  Li5256  Li1+  0.804  0.333  0.939  0.050
  Li1906  Li1+  0.300  0.500  0.954  0.050
  Li2665  Li1+  0.404  0.333  0.175  0.050
  Li2447  Li1+  0.529  0.008  0.194  0.050
  Li5155  Li1+  0.900  0.300  0.536  0.050
  Li5976  Li1+  0.804  0.933  0.939  0.050
  Li1069  Li1+  0.196  0.867  0.552  0.050
  Li3980  Li1+  0.729  0.329  0.419  0.050
  Li259  Li1+  0.100  0.300  0.136  0.050
  Li1051  Li1+  0.129  0.804  0.231  0.050
  Li3154  Li1+  0.500  0.700  0.154  0.051
  Li886  Li1+  0.004  0.729  0.631  0.051
  Li2728  Li1+  0.467  0.267  0.236  0.051
  Li379  Li1+  0.129  0.204  0.431  0.051
  Li4354  Li1+  0.700  0.700  0.154  0.052
  Li2345  Li1+  0.267  0.996  0.752  0.052
  Li2925  Li1+  0.533  0.404  0.139  0.052
  Li5707  Li1+  0.929  0.604  0.631  0.052
  Li5350  Li1+  0.804  0.529  0.231  0.052
  Li4195  Li1+  0.700  0.500  0.536  0.052
  Li1241  Li1+  0.267  0.196  0.152  0.052
  Li4599  Li1+  0.667  0.867  0.000  0.052
  Li1459  Li1+  0.300  0.300  0.136  0.053
  Li2677  Li1+  0.500  0.300  0.173  0.053
  Li3257  Li1+  0.467  0.796  0.552  0.053
  Li1366  Li1+  0.204  0.129  0.631  0.053
  Li1337  Li1+  0.267  0.196  0.552  0.053
  Li3241  Li1+  0.404  0.733  0.575  0.053
  Li1609  Li1+  0.204  0.333  0.775  0.053
  Li2111  Li1+  0.329  0.608  0.794  0.053
  Li2576  Li1+  0.500  0.100  0.718  0.053
  Li430  Li1+  0.133  0.204  0.775  0.053
  Li3495  Li1+  0.467  0.867  0.400  0.054
  Li3934  Li1+  0.733  0.204  0.375  0.054
  Li3687  Li1+  0.667  0.067  0.200  0.054
  Li4489  Li1+  0.604  0.733  0.775  0.054
  Li5650  Li1+  0.900  0.700  0.554  0.055
  Li4789  Li1+  0.700  0.900  0.973  0.055
  Li3880  Li1+  0.667  0.267  0.036  0.055
  Li4455  Li1+  0.667  0.667  0.400  0.056
  Li1417  Li1+  0.204  0.133  0.975  0.056
  Li205  Li1+  0.196  0.067  0.952  0.056
  Li3094  Li1+  0.404  0.529  0.831  0.056
  Li1359  Li1+  0.300  0.100  0.791  0.056
  Li3379  Li1+  0.500  0.900  0.136  0.056
  Li5888  Li1+  0.900  0.900  0.518  0.057
  Li5374  Li1+  0.933  0.404  0.375  0.057
  Li2232  Li1+  0.204  0.933  0.339  0.057
  Li4210  Li1+  0.700  0.500  0.554  0.057
  Li4027  Li1+  0.729  0.204  0.631  0.057
  Li4552  Li1+  0.667  0.667  0.836  0.057
  Li5182  Li1+  0.933  0.204  0.575  0.057
  Li5229  Li1+  0.933  0.204  0.739  0.058
  Li5232  Li1+  0.992  0.267  0.789  0.058
  Li4118  Li1+  0.700  0.500  0.100  0.058
  Li694  Li1+  0.004  0.529  0.831  0.058
  Li2639  Li1+  0.529  0.008  0.994  0.059
  Li3928  Li1+  0.667  0.267  0.236  0.059
  Li416  Li1+  0.100  0.300  0.718  0.059
  Li4557  Li1+  0.733  0.604  0.939  0.059
  Li2683  Li1+  0.529  0.204  0.031  0.059
  Li5989  Li1+  0.900  0.900  0.973  0.060
  Li4987  Li1+  0.929  0.004  0.631  0.060
  Li328  Li1+  0.067  0.267  0.236  0.060
  Li406  Li1+  0.004  0.329  0.631  0.060
  Li2249  Li1+  0.267  0.996  0.352  0.060
  Li2788  Li1+  0.550  0.350  0.777  0.060
  Li708  Li1+  0.096  0.496  0.828  0.060
  Li1752  Li1+  0.204  0.533  0.339  0.060
  Li5247  Li1+  0.900  0.300  0.991  0.060
  Li4882  Li1+  0.900  0.100  0.354  0.061
  Li3325  Li1+  0.596  0.667  0.952  0.061
  Li1005  Li1+  0.133  0.804  0.139  0.061
  Li1532  Li1+  0.329  0.329  0.219  0.061
  Li1911  Li1+  0.267  0.467  0.800  0.061
  Li4736  Li1+  0.700  0.900  0.718  0.061
  Li4602  Li1+  0.667  0.992  0.189  0.061
  Li1933  Li1+  0.396  0.667  0.152  0.062
  Li4287  Li1+  0.700  0.500  0.991  0.062
  Li3735  Li1+  0.667  0.067  0.400  0.062
  Li45  Li1+  0.133  0.004  0.139  0.062
  Li5228  Li1+  0.929  0.329  0.619  0.062
  Li4409  Li1+  0.667  0.796  0.352  0.062
  Li5760  Li1+  0.992  0.667  0.989  0.062
  Li4553  Li1+  0.667  0.796  0.952  0.062
  Li5608  Li1+  0.867  0.667  0.236  0.062
  Li4742  Li1+  0.700  0.900  0.700  0.063
  Li2443  Li1+  0.529  0.004  0.031  0.063
  Li4930  Li1+  0.900  0.100  0.554  0.063
  Li5568  Li1+  0.992  0.667  0.189  0.063
  Li5082  Li1+  0.867  0.392  0.189  0.063
  Li499  Li1+  0.100  0.500  0.136  0.063
  Li429  Li1+  0.133  0.204  0.739  0.063
  Li1555  Li1+  0.300  0.300  0.536  0.063
  Li3483  Li1+  0.550  0.950  0.596  0.063
  Li1148  Li1+  0.129  0.929  0.619  0.063
  Li5971  Li1+  0.900  0.900  0.936  0.063
  Li4967  Li1+  0.896  0.100  0.646  0.064
  Li281  Li1+  0.067  0.396  0.152  0.064
  Li4458  Li1+  0.667  0.792  0.589  0.064
  Li2875  Li1+  0.529  0.204  0.831  0.064
  Li3799  Li1+  0.746  0.150  0.850  0.064
  Li1572  Li1+  0.296  0.296  0.428  0.064
  Li2565  Li1+  0.550  0.146  0.632  0.064
  Li3500  Li1+  0.529  0.929  0.419  0.065
  Li1434  Li1+  0.267  0.192  0.989  0.065
  Li5986  Li1+  0.900  0.900  0.954  0.065
  Li1290  Li1+  0.267  0.192  0.389  0.065
  Li4124  Li1+  0.729  0.529  0.019  0.065
  Li4315  Li1+  0.729  0.404  0.831  0.065
  Li2712  Li1+  0.404  0.333  0.339  0.066
  Li2627  Li1+  0.408  0.129  0.994  0.066
  Li1801  Li1+  0.204  0.533  0.575  0.066
  Li3930  Li1+  0.667  0.392  0.389  0.066
  Li1616  Li1+  0.300  0.300  0.718  0.066
  Li303  Li1+  0.100  0.300  0.391  0.066
  Li2974  Li1+  0.533  0.404  0.375  0.066
  Li2659  Li1+  0.500  0.300  0.136  0.066
  Li2732  Li1+  0.529  0.329  0.219  0.066
  Li5326  Li1+  0.933  0.404  0.175  0.067
  Li1904  Li1+  0.300  0.500  0.918  0.067
  Li5128  Li1+  0.867  0.267  0.236  0.067
  Li3693  Li1+  0.733  0.004  0.339  0.067
  Li3164  Li1+  0.529  0.729  0.019  0.067
  Li5190  Li1+  0.846  0.246  0.787  0.067
  Li180  Li1+  0.096  0.096  0.628  0.067
  Li3251  Li1+  0.408  0.729  0.594  0.068
  Li3955  Li1+  0.700  0.300  0.536  0.068
  Li5174  Li1+  0.900  0.300  0.500  0.068
  Li3833  Li1+  0.667  0.196  0.952  0.068
  Li1288  Li1+  0.267  0.067  0.236  0.068
  Li2269  Li1+  0.396  0.867  0.552  0.068
  Li5225  Li1+  0.867  0.396  0.752  0.068
  Li5610  Li1+  0.867  0.792  0.389  0.068
  Li1681  Li1+  0.246  0.446  0.024  0.069
  Li5942  Li1+  0.900  0.900  0.700  0.069
  Li4680  Li1+  0.604  0.933  0.539  0.069
  Li2638  Li1+  0.533  0.004  0.975  0.069
  Li2825  Li1+  0.467  0.396  0.752  0.069
  Li1052  Li1+  0.129  0.929  0.219  0.070
  Li4556  Li1+  0.729  0.729  0.819  0.070
  Li3878  Li1+  0.700  0.300  0.100  0.071
  Li4009  Li1+  0.604  0.333  0.775  0.071
  Li5893  Li1+  0.900  0.900  0.573  0.071
  Li2806  Li1+  0.404  0.329  0.631  0.071
  Li2493  Li1+  0.533  0.004  0.339  0.071
  Li706  Li1+  0.100  0.500  0.954  0.071
  Li4507  Li1+  0.729  0.604  0.631  0.071
  Li1435  Li1+  0.329  0.004  0.831  0.071
  Li4890  Li1+  0.867  0.192  0.389  0.071
  Li2729  Li1+  0.467  0.396  0.352  0.071
  Li3740  Li1+  0.729  0.129  0.419  0.071
  Li4498  Li1+  0.700  0.700  0.754  0.071
  Li5123  Li1+  0.808  0.329  0.394  0.072
  Li4889  Li1+  0.867  0.196  0.352  0.072
  Li3499  Li1+  0.529  0.804  0.431  0.072
  Li3738  Li1+  0.667  0.192  0.589  0.073
  Li4698  Li1+  0.667  0.992  0.589  0.074
  Li5605  Li1+  0.900  0.700  0.373  0.074
  Li3210  Li1+  0.467  0.792  0.389  0.074
  Li178  Li1+  0.100  0.100  0.754  0.074
  Li5898  Li1+  0.867  0.992  0.589  0.074
  Li2463  Li1+  0.500  0.100  0.391  0.074
  Li1791  Li1+  0.300  0.500  0.591  0.074
  Li5702  Li1+  0.900  0.700  0.700  0.075
  Li1483  Li1+  0.329  0.204  0.031  0.076
  Li3010  Li1+  0.500  0.500  0.554  0.076
  Li527  Li1+  0.129  0.408  0.194  0.076
  Li3432  Li1+  0.404  0.933  0.339  0.077
  Li4697  Li1+  0.667  0.996  0.552  0.077
  Li1624  Li1+  0.267  0.267  0.636  0.077
  Li5801  Li1+  0.867  0.996  0.152  0.077
  Li44  Li1+  0.129  0.129  0.019  0.077
  Li255  Li1+  0.100  0.300  0.191  0.077
  Li3913  Li1+  0.604  0.333  0.375  0.078
  Li1723  Li1+  0.329  0.404  0.031  0.078
  Li619  Li1+  0.129  0.404  0.431  0.078
  Li514  Li1+  0.100  0.500  0.154  0.078
  Li5084  Li1+  0.929  0.329  0.019  0.078
  Li1042  Li1+  0.100  0.900  0.354  0.078
  Li2016  Li1+  0.392  0.667  0.389  0.078
  Li1839  Li1+  0.300  0.500  0.791  0.079
  Li2819  Li1+  0.408  0.329  0.794  0.079
  Li5274  Li1+  0.867  0.392  0.989  0.079
  Li1144  Li1+  0.067  0.867  0.636  0.079
  Li2038  Li1+  0.204  0.729  0.431  0.079
  Li4368  Li1+  0.792  0.667  0.189  0.079
  Li3498  Li1+  0.467  0.992  0.589  0.080
  Li5299  Li1+  0.900  0.500  0.136  0.080
  Li5664  Li1+  0.992  0.667  0.589  0.080
  Li4655  Li1+  0.729  0.808  0.394  0.080
  Li1860  Li1+  0.296  0.496  0.628  0.080
  Li2489  Li1+  0.467  0.196  0.352  0.080
  Li1724  Li1+  0.329  0.529  0.019  0.080
  Li5306  Li1+  0.850  0.446  0.042  0.080
  Li3675  Li1+  0.750  0.150  0.396  0.080
  Li5468  Li1+  0.929  0.529  0.619  0.081
  Li5456  Li1+  0.900  0.500  0.718  0.081
  Li464  Li1+  0.100  0.300  0.918  0.081
  Li3375  Li1+  0.500  0.900  0.191  0.081
  Li3788  Li1+  0.729  0.129  0.619  0.081
  Li1480  Li1+  0.267  0.267  0.036  0.081
  Li3167  Li1+  0.529  0.608  0.194  0.082
  Li5551  Li1+  0.900  0.700  0.082  0.082
  Li4249  Li1+  0.604  0.533  0.775  0.082
  Li3069  Li1+  0.533  0.404  0.739  0.082
  Li4071  Li1+  0.667  0.267  0.800  0.082
  Li1666  Li1+  0.300  0.300  0.954  0.083
  Li4983  Li1+  0.867  0.067  0.600  0.083
  Li3475  Li1+  0.500  0.900  0.536  0.083
  Li3070  Li1+  0.533  0.404  0.775  0.083
  Li2302  Li1+  0.333  0.804  0.575  0.083
  Li2538  Li1+  0.467  0.192  0.589  0.083
  Li5449  Li1+  0.804  0.533  0.775  0.083
  Li5748  Li1+  0.896  0.696  0.828  0.083
  Li2634  Li1+  0.467  0.192  0.989  0.083
  Li5266  Li1+  0.900  0.300  0.954  0.084
  Li4309  Li1+  0.700  0.500  0.973  0.084
  Li2781  Li1+  0.533  0.204  0.539  0.084
  Li1551  Li1+  0.300  0.300  0.591  0.084
  Li4792  Li1+  0.667  0.867  0.836  0.084
  Li4112  Li1+  0.700  0.500  0.118  0.084
  Li187  Li1+  0.129  0.004  0.631  0.084
  Li3976  Li1+  0.667  0.267  0.436  0.084
  Li3594  Li1+  0.467  0.992  0.989  0.084
  Li463  Li1+  0.100  0.300  0.882  0.085
  Li3542  Li1+  0.500  0.900  0.700  0.085
  Li1141  Li1+  0.100  0.900  0.773  0.085
  Li1088  Li1+  0.100  0.900  0.518  0.085
  Li2244  Li1+  0.296  0.896  0.228  0.085
  Li4690  Li1+  0.700  0.900  0.554  0.085
  Li5612  Li1+  0.929  0.729  0.219  0.085
  Li4039  Li1+  0.746  0.350  0.850  0.086
  Li5506  Li1+  0.900  0.500  0.954  0.086
  Li3983  Li1+  0.729  0.208  0.594  0.086
  Li1964  Li1+  0.329  0.729  0.019  0.086
  Li351  Li1+  0.100  0.300  0.591  0.086
  Li1222  Li1+  0.204  0.129  0.031  0.086
  Li4591  Li1+  0.700  0.900  0.082  0.086
  Li1813  Li1+  0.300  0.500  0.573  0.087
  Li5918  Li1+  0.900  0.900  0.664  0.087
  Li1091  Li1+  0.008  0.929  0.594  0.087
  Li4567  Li1+  0.746  0.950  0.050  0.087
  Li1858  Li1+  0.300  0.500  0.754  0.087
  Li4887  Li1+  0.867  0.067  0.200  0.087
  Li5833  Li1+  0.804  0.933  0.375  0.087
  Li3238  Li1+  0.404  0.729  0.431  0.087
  Li1101  Li1+  0.133  0.804  0.539  0.087
  Li5034  Li1+  0.867  0.192  0.989  0.087
  Li2814  Li1+  0.496  0.296  0.610  0.087
  Li2103  Li1+  0.267  0.667  0.600  0.088
  Li3163  Li1+  0.529  0.604  0.031  0.088
  Li1775  Li1+  0.329  0.408  0.394  0.088
  Li4231  Li1+  0.746  0.550  0.650  0.088
  Li855  Li1+  0.067  0.667  0.400  0.088
  Li4319  Li1+  0.729  0.408  0.994  0.089
  Li3827  Li1+  0.608  0.129  0.994  0.089
  Li2179  Li1+  0.300  0.900  0.136  0.089
  Li1285  Li1+  0.300  0.100  0.373  0.089
  Li3839  Li1+  0.729  0.008  0.994  0.089
  Li5170  Li1+  0.900  0.300  0.554  0.089
  Li216  Li1+  0.004  0.133  0.939  0.089
  Li2152  Li1+  0.267  0.667  0.836  0.090
  Li4694  Li1+  0.700  0.900  0.500  0.090
  Li5311  Li1+  0.900  0.500  0.082  0.090
  Li1712  Li1+  0.300  0.500  0.118  0.090
  Li4351  Li1+  0.700  0.700  0.082  0.090
  Li3973  Li1+  0.700  0.300  0.573  0.090
  Li4174  Li1+  0.733  0.404  0.375  0.090
  Li1189  Li1+  0.100  0.900  0.973  0.090
  Li4260  Li1+  0.696  0.496  0.628  0.091
  Li2300  Li1+  0.329  0.929  0.419  0.091
  Li896  Li1+  0.100  0.700  0.718  0.091
  Li3157  Li1+  0.500  0.700  0.173  0.091
  Li2155  Li1+  0.329  0.604  0.831  0.091
  Li1722  Li1+  0.267  0.592  0.189  0.091
  Li274  Li1+  0.100  0.300  0.154  0.091
  Li1488  Li1+  0.392  0.267  0.189  0.091
  Li4269  Li1+  0.733  0.404  0.739  0.092
  Li1003  Li1+  0.129  0.804  0.031  0.092
  Li1142  Li1+  0.100  0.900  0.700  0.092
  Li1533  Li1+  0.333  0.204  0.339  0.093
  Li3931  Li1+  0.729  0.204  0.231  0.093
  Li948  Li1+  0.096  0.696  0.828  0.093
  Li4342  Li1+  0.604  0.729  0.031  0.093
  Li397  Li1+  0.196  0.267  0.752  0.094
  Li1292  Li1+  0.329  0.129  0.219  0.095
  Li658  Li1+  0.100  0.500  0.754  0.095
  Li2286  Li1+  0.296  0.896  0.410  0.095
  Li5135  Li1+  0.929  0.208  0.394  0.095
  Li2589  Li1+  0.533  0.004  0.739  0.095
  Li2847  Li1+  0.500  0.300  0.991  0.095
  Li3923  Li1+  0.608  0.329  0.394  0.095
  Li3158  Li1+  0.500  0.700  0.100  0.095
  Li5902  Li1+  0.933  0.804  0.575  0.096
  Li4554  Li1+  0.667  0.792  0.989  0.096
  Li5463  Li1+  0.867  0.467  0.600  0.096
  Li4003  Li1+  0.700  0.300  0.736  0.096
  Li144  Li1+  0.192  0.067  0.589  0.096
  Li3835  Li1+  0.729  0.004  0.831  0.096
  Li1224  Li1+  0.204  0.133  0.139  0.096
  Li4931  Li1+  0.808  0.129  0.594  0.096
  Li3875  Li1+  0.608  0.329  0.194  0.097
  Li2816  Li1+  0.500  0.300  0.718  0.097
  Li2079  Li1+  0.300  0.700  0.791  0.097
  Li5533  Li1+  0.996  0.667  0.152  0.097
  Li4939  Li1+  0.929  0.004  0.431  0.097
  Li5660  Li1+  0.929  0.729  0.419  0.098
  Li614  Li1+  0.100  0.500  0.500  0.098
  Li3001  Li1+  0.404  0.533  0.575  0.098
  Li3394  Li1+  0.500  0.900  0.154  0.098
  Li1139  Li1+  0.008  0.929  0.794  0.099
  Li131  Li1+  0.008  0.129  0.594  0.099
  Li2461  Li1+  0.596  0.067  0.352  0.099
  Li637  Li1+  0.196  0.467  0.752  0.099
  Li2818  Li1+  0.500  0.300  0.754  0.099
  Li222  Li1+  0.096  0.096  0.810  0.100
  Li3533  Li1+  0.550  0.946  0.614  0.100
  Li1629  Li1+  0.333  0.204  0.739  0.100
  Li1033  Li1+  0.004  0.933  0.375  0.100
  Li3016  Li1+  0.467  0.467  0.436  0.100
  Li4280  Li1+  0.650  0.450  0.859  0.101
  Li5521  Li1+  0.846  0.646  0.024  0.101
  Li3536  Li1+  0.500  0.900  0.718  0.101
  Li3018  Li1+  0.467  0.592  0.589  0.101
  Li994  Li1+  0.100  0.900  0.154  0.101
  Li2599  Li1+  0.546  0.150  0.850  0.101
  Li5513  Li1+  0.867  0.596  0.952  0.101
  Li4937  Li1+  0.867  0.196  0.552  0.102
  Li5951  Li1+  0.929  0.808  0.794  0.102
  Li72  Li1+  0.004  0.133  0.339  0.102
  Li5887  Li1+  0.900  0.900  0.482  0.102
  Li1699  Li1+  0.300  0.500  0.136  0.103
  Li1367  Li1+  0.296  0.100  0.646  0.103
  Li2582  Li1+  0.500  0.100  0.700  0.103
  Li1390  Li1+  0.333  0.004  0.775  0.103
  Li5654  Li1+  0.900  0.700  0.500  0.103
  Li5061  Li1+  0.950  0.346  0.032  0.103
  Li3183  Li1+  0.500  0.700  0.391  0.103
  Li2293  Li1+  0.300  0.900  0.573  0.103
  Li277  Li1+  0.100  0.300  0.173  0.104
  Li1363  Li1+  0.300  0.100  0.736  0.104
  Li280  Li1+  0.067  0.267  0.036  0.104
  Li3039  Li1+  0.500  0.500  0.791  0.104
  Li2482  Li1+  0.500  0.100  0.354  0.104
  Li3971  Li1+  0.608  0.329  0.594  0.104
  Li1118  Li1+  0.100  0.900  0.664  0.105
  Li901  Li1+  0.100  0.700  0.773  0.105
  Li4633  Li1+  0.604  0.933  0.375  0.105
  Li5890  Li1+  0.900  0.900  0.554  0.105
  Li3068  Li1+  0.529  0.529  0.619  0.106
  Li384  Li1+  0.192  0.267  0.589  0.106
  Li662  Li1+  0.100  0.500  0.700  0.106
  Li2803  Li1+  0.500  0.300  0.736  0.106
  Li4216  Li1+  0.667  0.467  0.436  0.106
  Li4102  Li1+  0.604  0.529  0.031  0.106
  Li4415  Li1+  0.729  0.608  0.394  0.107
  Li568  Li1+  0.067  0.467  0.236  0.107
  Li739  Li1+  0.100  0.700  0.136  0.107
  Li5779  Li1+  0.900  0.900  0.136  0.107
  Li310  Li1+  0.004  0.329  0.231  0.108
  Li4607  Li1+  0.729  0.808  0.194  0.108
  Li2672  Li1+  0.500  0.300  0.118  0.108
  Li2952  Li1+  0.404  0.533  0.339  0.108
  Li2394  Li1+  0.267  0.992  0.989  0.108
  Li2440  Li1+  0.467  0.067  0.036  0.108
  Li760  Li1+  0.067  0.667  0.036  0.108
  Li1630  Li1+  0.333  0.204  0.775  0.108
  Li3968  Li1+  0.700  0.300  0.518  0.108
  Li4408  Li1+  0.667  0.667  0.236  0.108
  Li2336  Li1+  0.300  0.900  0.718  0.108
  Li1549  Li1+  0.396  0.267  0.552  0.109
  Li3960  Li1+  0.604  0.333  0.539  0.109
  Li5014  Li1+  0.804  0.129  0.831  0.109
  Li2192  Li1+  0.300  0.900  0.118  0.109
  Li4261  Li1+  0.700  0.500  0.773  0.109
  Li1651  Li1+  0.300  0.300  0.936  0.109
  Li2326  Li1+  0.204  0.929  0.631  0.110
  Li231  Li1+  0.067  0.067  0.800  0.110
  Li2013  Li1+  0.333  0.604  0.339  0.110
  Li3638  Li1+  0.700  0.100  0.100  0.110
  Li5688  Li1+  0.804  0.733  0.739  0.111
  Li4688  Li1+  0.700  0.900  0.518  0.111
  Li4025  Li1+  0.667  0.396  0.752  0.111
  Li4527  Li1+  0.700  0.700  0.991  0.111
  Li3571  Li1+  0.500  0.900  0.936  0.111
  Li3231  Li1+  0.500  0.700  0.591  0.112
  Li4258  Li1+  0.700  0.500  0.754  0.112
  Li422  Li1+  0.100  0.300  0.700  0.112
  Li2061  Li1+  0.333  0.604  0.539  0.112
  Li4429  Li1+  0.796  0.667  0.552  0.113
  Li2054  Li1+  0.300  0.700  0.500  0.113
  Li5800  Li1+  0.867  0.867  0.036  0.113
  Li1714  Li1+  0.300  0.500  0.154  0.113
  Li1284  Li1+  0.296  0.096  0.228  0.113
  Li2969  Li1+  0.467  0.596  0.352  0.113
  Li1774  Li1+  0.333  0.404  0.375  0.113
  Li1668  Li1+  0.296  0.296  0.828  0.114
  Li4412  Li1+  0.729  0.729  0.219  0.114
  Li1484  Li1+  0.329  0.329  0.019  0.115
  Li3663  Li1+  0.700  0.100  0.391  0.115
  Li5026  Li1+  0.900  0.100  0.954  0.116
  Li697  Li1+  0.004  0.533  0.975  0.116
  Li1411  Li1+  0.300  0.100  0.936  0.116
  Li5752  Li1+  0.867  0.667  0.836  0.117
  Li1044  Li1+  0.096  0.896  0.228  0.117
  Li3298  Li1+  0.500  0.700  0.754  0.117
  Li3385  Li1+  0.404  0.933  0.175  0.117
  Li860  Li1+  0.129  0.729  0.419  0.117
  Li109  Li1+  0.196  0.067  0.552  0.117
  Li794  Li1+  0.050  0.646  0.242  0.117
  Li997  Li1+  0.100  0.900  0.173  0.117
  Li956  Li1+  0.129  0.729  0.819  0.117
  Li572  Li1+  0.129  0.529  0.219  0.117
  Li612  Li1+  0.096  0.496  0.428  0.117
  Li1379  Li1+  0.208  0.129  0.794  0.118
  Li3145  Li1+  0.404  0.733  0.175  0.118
  Li4172  Li1+  0.729  0.529  0.219  0.118
  Li403  Li1+  0.100  0.300  0.736  0.118
  Li5919  Li1+  0.900  0.900  0.791  0.118
  Li47  Li1+  0.129  0.008  0.194  0.119
  Li1282  Li1+  0.300  0.100  0.354  0.119
  Li2826  Li1+  0.467  0.392  0.789  0.119
  Li5454  Li1+  0.896  0.496  0.610  0.119
  Li5347  Li1+  0.900  0.500  0.336  0.119
  Li811  Li1+  0.129  0.604  0.231  0.119
  Li1030  Li1+  0.004  0.929  0.231  0.119
  Li5074  Li1+  0.900  0.300  0.154  0.119
  Li1993  Li1+  0.204  0.733  0.375  0.119
  Li398  Li1+  0.100  0.300  0.664  0.119
  Li3019  Li1+  0.529  0.404  0.431  0.120
  Li2484  Li1+  0.496  0.096  0.228  0.120
  Li4357  Li1+  0.700  0.700  0.173  0.120
  Li2007  Li1+  0.267  0.667  0.200  0.120
  Li5948  Li1+  0.929  0.929  0.619  0.120
  Li4648  Li1+  0.667  0.867  0.236  0.121
  Li1510  Li1+  0.204  0.329  0.231  0.121
  Li664  Li1+  0.067  0.467  0.636  0.121
  Li1194  Li1+  0.067  0.992  0.989  0.121
  Li2822  Li1+  0.500  0.300  0.700  0.122
  Li5203  Li1+  0.900  0.300  0.736  0.122
  Li2422  Li1+  0.404  0.129  0.031  0.123
  Li519  Li1+  0.067  0.467  0.000  0.123
  Li816  Li1+  0.192  0.667  0.389  0.124
  Li5075  Li1+  0.808  0.329  0.194  0.124
  Li4893  Li1+  0.933  0.004  0.339  0.124
  Li5458  Li1+  0.900  0.500  0.754  0.124
  Li4339  Li1+  0.700  0.700  0.136  0.124
  Li2104  Li1+  0.267  0.667  0.636  0.124
  Li3243  Li1+  0.550  0.750  0.596  0.124
  Li3769  Li1+  0.604  0.133  0.775  0.124
  Li4015  Li1+  0.700  0.300  0.682  0.125
  Li3359  Li1+  0.529  0.608  0.994  0.125
  Li5095  Li1+  0.946  0.350  0.250  0.125
  Li2629  Li1+  0.500  0.100  0.973  0.126
  Li2319  Li1+  0.300  0.900  0.791  0.126
  Li2146  Li1+  0.300  0.700  0.954  0.126
  Li5791  Li1+  0.900  0.900  0.082  0.126
  Li783  Li1+  0.100  0.700  0.391  0.126
  Li5387  Li1+  0.850  0.450  0.514  0.126
  Li3152  Li1+  0.500  0.700  0.118  0.127
  Li2609  Li1+  0.550  0.150  0.886  0.127
  Li5272  Li1+  0.867  0.267  0.836  0.127
  Li1135  Li1+  0.100  0.900  0.682  0.128
  Li2967  Li1+  0.467  0.467  0.200  0.128
  Li2876  Li1+  0.529  0.329  0.819  0.129
  Li4895  Li1+  0.929  0.008  0.394  0.129
  Li421  Li1+  0.100  0.300  0.773  0.129
  Li1054  Li1+  0.133  0.804  0.375  0.129
  Li5606  Li1+  0.900  0.700  0.300  0.129
  Li4435  Li1+  0.700  0.700  0.536  0.129
  Li163  Li1+  0.100  0.100  0.736  0.129
  Li5231  Li1+  0.929  0.208  0.794  0.129
  Li543  Li1+  0.100  0.500  0.391  0.130
  Li3106  Li1+  0.500  0.500  0.954  0.130
  Li1140  Li1+  0.096  0.896  0.628  0.130
  Li5078  Li1+  0.900  0.300  0.100  0.131
  Li3235  Li1+  0.500  0.700  0.536  0.131
  Li3256  Li1+  0.467  0.667  0.436  0.131
  Li126  Li1+  0.096  0.096  0.410  0.131
  Li5055  Li1+  0.900  0.300  0.191  0.132
  Li4786  Li1+  0.700  0.900  0.954  0.132
  Li3478  Li1+  0.404  0.929  0.431  0.132
  Li3471  Li1+  0.500  0.900  0.591  0.132
  Li89  Li1+  0.067  0.196  0.352  0.132
  Li4364  Li1+  0.729  0.729  0.019  0.132
  Li4120  Li1+  0.667  0.467  0.036  0.133
  Li1899  Li1+  0.350  0.550  0.996  0.133
  Li4164  Li1+  0.696  0.496  0.228  0.133
  Li4312  Li1+  0.667  0.467  0.836  0.134
  Li3972  Li1+  0.696  0.296  0.428  0.135
  Li5040  Li1+  0.992  0.067  0.989  0.135
  Li5941  Li1+  0.900  0.900  0.773  0.136
  Li2424  Li1+  0.404  0.133  0.139  0.136
  Li613  Li1+  0.100  0.500  0.573  0.136
  Li1912  Li1+  0.267  0.467  0.836  0.136
  Li563  Li1+  0.008  0.529  0.394  0.136
  Li2206  Li1+  0.333  0.804  0.175  0.136
  Li370  Li1+  0.100  0.300  0.554  0.137
  Li3263  Li1+  0.529  0.608  0.594  0.137
  Li1248  Li1+  0.392  0.067  0.189  0.137
  Li3811  Li1+  0.700  0.100  0.936  0.137
  Li3404  Li1+  0.529  0.929  0.019  0.137
  Li1447  Li1+  0.346  0.350  0.050  0.137
  Li1846  Li1+  0.204  0.529  0.631  0.137
  Li1530  Li1+  0.267  0.392  0.389  0.138
  Li1192  Li1+  0.067  0.867  0.836  0.139
  Li2248  Li1+  0.267  0.867  0.236  0.139
  Li4546  Li1+  0.700  0.700  0.954  0.139
  Li25  Li1+  0.004  0.133  0.175  0.139
  Li1939  Li1+  0.300  0.700  0.136  0.139
  Li5705  Li1+  0.867  0.796  0.752  0.140
  Li1092  Li1+  0.096  0.896  0.428  0.140
  Li550  Li1+  0.004  0.529  0.231  0.140
  Li3894  Li1+  0.646  0.246  0.387  0.140
  Li4214  Li1+  0.700  0.500  0.500  0.140
  Li2918  Li1+  0.500  0.500  0.100  0.140
  Li3307  Li1+  0.529  0.604  0.631  0.140
  Li703  Li1+  0.100  0.500  0.882  0.141
  Li1864  Li1+  0.267  0.467  0.636  0.141
  Li2559  Li1+  0.500  0.100  0.791  0.142
  Li2056  Li1+  0.267  0.667  0.436  0.143
  Li3056  Li1+  0.500  0.500  0.718  0.143
  Li4615  Li1+  0.746  0.950  0.250  0.144
  Li2014  Li1+  0.333  0.604  0.375  0.145
  Li5223  Li1+  0.867  0.267  0.600  0.145
  Li128  Li1+  0.100  0.100  0.518  0.145
  Li2780  Li1+  0.529  0.329  0.419  0.145
  Li3442  Li1+  0.500  0.900  0.354  0.145
  Li1963  Li1+  0.329  0.604  0.031  0.146
  Li133  Li1+  0.100  0.100  0.573  0.146
  Li5656  Li1+  0.867  0.667  0.436  0.146
  Li226  Li1+  0.100  0.100  0.954  0.147
  Li4127  Li1+  0.729  0.408  0.194  0.147
  Li4597  Li1+  0.700  0.900  0.173  0.147
  Li4018  Li1+  0.700  0.300  0.754  0.147
  Li2751  Li1+  0.500  0.300  0.591  0.147
  Li3346  Li1+  0.500  0.700  0.954  0.148
  Li1815  Li1+  0.267  0.467  0.400  0.148
  Li5112  Li1+  0.804  0.333  0.339  0.148
  Li1429  Li1+  0.300  0.100  0.973  0.149
  Li1315  Li1+  0.300  0.100  0.536  0.149
  Li981  Li1+  0.150  0.946  0.032  0.149
  Li1560  Li1+  0.204  0.333  0.539  0.150
  Li2338  Li1+  0.300  0.900  0.754  0.150
  Li3683  Li1+  0.608  0.129  0.394  0.151
  Li3984  Li1+  0.792  0.267  0.589  0.151
  Li3615  Li1+  0.700  0.100  0.191  0.151
  Li752  Li1+  0.100  0.700  0.118  0.151
  Li3097  Li1+  0.404  0.533  0.975  0.152
  Li4020  Li1+  0.696  0.296  0.628  0.152
  Li4264  Li1+  0.667  0.467  0.636  0.152
  Li4896  Li1+  0.992  0.067  0.389  0.152
  Li4634  Li1+  0.650  0.846  0.242  0.152
  Li355  Li1+  0.100  0.300  0.536  0.152
  Li3598  Li1+  0.533  0.804  0.975  0.152
  Li5216  Li1+  0.900  0.300  0.718  0.152
  Li3120  Li1+  0.592  0.467  0.989  0.153
  Li2830  Li1+  0.533  0.204  0.775  0.153
  Li5804  Li1+  0.929  0.929  0.019  0.153
  Li1147  Li1+  0.129  0.804  0.631  0.153
  Li3264  Li1+  0.592  0.667  0.589  0.153
  Li4863  Li1+  0.900  0.100  0.391  0.154
  Li911  Li1+  0.129  0.608  0.794  0.154
  Li5711  Li1+  0.929  0.608  0.794  0.155
  Li4352  Li1+  0.700  0.700  0.118  0.155
  Li4170  Li1+  0.667  0.592  0.389  0.155
  Li5988  Li1+  0.896  0.896  0.828  0.155
  Li5737  Li1+  0.804  0.733  0.975  0.155
  Li2851  Li1+  0.500  0.300  0.936  0.155
  Li5756  Li1+  0.929  0.729  0.819  0.155
  Li5373  Li1+  0.933  0.404  0.339  0.156
  Li136  Li1+  0.067  0.067  0.436  0.156
  Li1579  Li1+  0.329  0.204  0.431  0.156
  Li5638  Li1+  0.804  0.729  0.431  0.156
  Li595  Li1+  0.100  0.500  0.536  0.156
  Li2194  Li1+  0.300  0.900  0.154  0.156
  Li4387  Li1+  0.700  0.700  0.336  0.157
  Li2919  Li1+  0.467  0.467  0.000  0.157
  Li3252  Li1+  0.496  0.696  0.428  0.158
  Li5218  Li1+  0.900  0.300  0.754  0.158
  Li5880  Li1+  0.804  0.933  0.539  0.159
  Li4767  Li1+  0.700  0.900  0.991  0.159
  Li3661  Li1+  0.796  0.067  0.352  0.159
  Li1188  Li1+  0.096  0.896  0.828  0.160
  Li2497  Li1+  0.446  0.046  0.424  0.160
  Li95  Li1+  0.129  0.008  0.394  0.160
  Li5131  Li1+  0.929  0.204  0.231  0.160
  Li325  Li1+  0.100  0.300  0.373  0.161
  Li2680  Li1+  0.467  0.267  0.036  0.161
  Li322  Li1+  0.100  0.300  0.354  0.161
  Li3531  Li1+  0.550  0.950  0.796  0.162
  Li479  Li1+  0.129  0.208  0.994  0.162
  Li695  Li1+  0.096  0.500  0.846  0.162
  Li2749  Li1+  0.596  0.267  0.552  0.162
  Li211  Li1+  0.100  0.100  0.936  0.164
  Li2245  Li1+  0.300  0.900  0.373  0.166
  Li4057  Li1+  0.604  0.333  0.975  0.166
  Li206  Li1+  0.100  0.100  0.864  0.166
  Li1766  Li1+  0.300  0.500  0.300  0.166
  Li3455  Li1+  0.529  0.808  0.394  0.167
  Li2098  Li1+  0.300  0.700  0.754  0.167
  Li5370  Li1+  0.867  0.592  0.389  0.168
  Li2574  Li1+  0.496  0.096  0.610  0.168
  Li4832  Li1+  0.900  0.100  0.118  0.168
  Li3883  Li1+  0.729  0.204  0.031  0.168
  Li2031  Li1+  0.300  0.700  0.591  0.168
  Li1749  Li1+  0.350  0.546  0.232  0.169
  Li5214  Li1+  0.896  0.296  0.610  0.169
  Li4555  Li1+  0.729  0.604  0.831  0.169
  Li3918  Li1+  0.696  0.296  0.210  0.169
  Li1187  Li1+  0.008  0.929  0.994  0.169
  Li903  Li1+  0.067  0.667  0.600  0.169
  Li2044  Li1+  0.246  0.646  0.406  0.170
  Li3767  Li1+  0.696  0.100  0.646  0.170
  Li985  Li1+  0.004  0.933  0.175  0.171
  Li713  Li1+  0.067  0.596  0.952  0.171
  Li5150  Li1+  0.900  0.300  0.464  0.171
  Li1023  Li1+  0.100  0.900  0.391  0.172
  Li666  Li1+  0.067  0.592  0.789  0.172
  Li854  Li1+  0.100  0.700  0.500  0.173
  Li4450  Li1+  0.700  0.700  0.554  0.173
  Li5365  Li1+  0.900  0.500  0.373  0.173
  Li2382  Li1+  0.296  0.896  0.810  0.173
  Li3759  Li1+  0.700  0.100  0.791  0.173
  Li4141  Li1+  0.796  0.467  0.352  0.173
  Li4574  Li1+  0.700  0.900  0.064  0.173
  Li5343  Li1+  0.900  0.500  0.391  0.174
  Li1453  Li1+  0.396  0.267  0.152  0.174
  Li4460  Li1+  0.729  0.729  0.419  0.175
  Li5503  Li1+  0.900  0.500  0.882  0.175
  Li1942  Li1+  0.204  0.729  0.031  0.175
  Li2281  Li1+  0.204  0.933  0.575  0.176
  Li2252  Li1+  0.329  0.929  0.219  0.176
  Li5843  Li1+  0.808  0.929  0.394  0.177
  Li986  Li1+  0.050  0.846  0.042  0.177
  Li749  Li1+  0.150  0.746  0.014  0.177
  Li1465  Li1+  0.204  0.333  0.175  0.177
  Li1720  Li1+  0.267  0.467  0.036  0.177
  Li284  Li1+  0.129  0.329  0.019  0.177
  Li3012  Li1+  0.496  0.496  0.428  0.178
  Li3884  Li1+  0.729  0.329  0.019  0.178
  Li1808  Li1+  0.300  0.500  0.518  0.178
  Li4638  Li1+  0.696  0.896  0.210  0.178
  Li4872  Li1+  0.804  0.133  0.339  0.179
  Li462  Li1+  0.096  0.296  0.810  0.179
  Li3250  Li1+  0.500  0.700  0.554  0.179
  Li5360  Li1+  0.900  0.500  0.318  0.179
  Li2150  Li1+  0.300  0.700  0.900  0.180
  Li1647  Li1+  0.300  0.300  0.991  0.180
  Li507  Li1+  0.150  0.550  0.196  0.180
  Li1327  Li1+  0.300  0.100  0.482  0.180
  Li1513  Li1+  0.204  0.333  0.375  0.180
  Li3584  Li1+  0.500  0.900  0.918  0.180
  Li1099  Li1+  0.129  0.804  0.431  0.181
  Li368  Li1+  0.100  0.300  0.518  0.181
  Li1182  Li1+  0.096  0.896  0.810  0.181
  Li1812  Li1+  0.296  0.496  0.428  0.181
  Li2432  Li1+  0.500  0.100  0.118  0.181
  Li4074  Li1+  0.667  0.392  0.989  0.181
  Li5894  Li1+  0.900  0.900  0.500  0.181
  Li1574  Li1+  0.300  0.300  0.500  0.182
  Li2899  Li1+  0.500  0.500  0.136  0.182
  Li17  Li1+  0.150  0.150  0.086  0.183
  Li4099  Li1+  0.700  0.500  0.136  0.183
  Li4771  Li1+  0.700  0.900  0.936  0.183
  Li2199  Li1+  0.267  0.867  0.000  0.183
  Li3743  Li1+  0.729  0.008  0.594  0.183
  Li4592  Li1+  0.700  0.900  0.118  0.183
  Li2175  Li1+  0.300  0.900  0.191  0.183
  Li5390  Li1+  0.900  0.500  0.464  0.183
  Li4797  Li1+  0.733  0.804  0.939  0.184
  Li3724  Li1+  0.646  0.046  0.406  0.184
  Li2755  Li1+  0.500  0.300  0.536  0.184
  Li5936  Li1+  0.900  0.900  0.718  0.184
  Li3395  Li1+  0.408  0.929  0.194  0.185
  Li954  Li1+  0.067  0.792  0.989  0.185
  Li4623  Li1+  0.700  0.900  0.391  0.185
  Li1916  Li1+  0.329  0.529  0.819  0.185
  Li5268  Li1+  0.896  0.296  0.828  0.185
  Li552  Li1+  0.004  0.533  0.339  0.185
  Li2912  Li1+  0.500  0.500  0.118  0.186
  Li3204  Li1+  0.496  0.696  0.228  0.186
  Li167  Li1+  0.096  0.100  0.646  0.186
  Li1946  Li1+  0.250  0.646  0.042  0.187
  Li3490  Li1+  0.500  0.900  0.554  0.188
  Li5594  Li1+  0.850  0.646  0.242  0.188
  Li3008  Li1+  0.500  0.500  0.518  0.188
  Li2442  Li1+  0.467  0.192  0.189  0.189
  Li843  Li1+  0.150  0.750  0.596  0.189
  Li1719  Li1+  0.267  0.467  0.000  0.189
  Li3622  Li1+  0.604  0.129  0.031  0.190
  Li1795  Li1+  0.300  0.500  0.536  0.190
  Li3349  Li1+  0.500  0.700  0.973  0.190
  Li3590  Li1+  0.500  0.900  0.900  0.190
  Li3642  Li1+  0.667  0.192  0.189  0.191
  Li4051  Li1+  0.700  0.300  0.936  0.191
  Li2159  Li1+  0.329  0.608  0.994  0.192
  Li807  Li1+  0.067  0.667  0.200  0.192
  Li5132  Li1+  0.929  0.329  0.219  0.192
  Li1868  Li1+  0.329  0.529  0.619  0.192
  Li414  Li1+  0.096  0.296  0.610  0.193
  Li2995  Li1+  0.500  0.500  0.536  0.193
  Li4047  Li1+  0.700  0.300  0.991  0.193
  Li5240  Li1+  0.850  0.250  0.859  0.193
  Li5739  Li1+  0.950  0.750  0.996  0.194
  Li3784  Li1+  0.667  0.067  0.636  0.194
  Li5368  Li1+  0.867  0.467  0.236  0.194
  Li457  Li1+  0.004  0.333  0.975  0.195
  Li4544  Li1+  0.700  0.700  0.918  0.195
  Li37  Li1+  0.100  0.100  0.173  0.195
  Li295  Li1+  0.146  0.350  0.250  0.195
  Li4212  Li1+  0.696  0.496  0.428  0.196
  Li902  Li1+  0.100  0.700  0.700  0.196
  Li2578  Li1+  0.500  0.100  0.754  0.196
  Li5792  Li1+  0.900  0.900  0.118  0.197
  Li4982  Li1+  0.900  0.100  0.700  0.198
  Li4975  Li1+  0.900  0.100  0.682  0.199
  Li5845  Li1+  0.900  0.900  0.373  0.199
  Li3053  Li1+  0.550  0.546  0.614  0.199
  Li2726  Li1+  0.500  0.300  0.300  0.200
  Li716  Li1+  0.129  0.529  0.819  0.200
  Li1090  Li1+  0.100  0.900  0.554  0.200
  Li655  Li1+  0.100  0.500  0.682  0.201
  Li3685  Li1+  0.700  0.100  0.373  0.201
  Li4402  Li1+  0.700  0.700  0.354  0.201
  Li2029  Li1+  0.396  0.667  0.552  0.202
  Li1240  Li1+  0.267  0.067  0.036  0.202
  Li1814  Li1+  0.300  0.500  0.500  0.202
  Li842  Li1+  0.050  0.646  0.442  0.203
  Li3766  Li1+  0.604  0.129  0.631  0.203
  Li2096  Li1+  0.300  0.700  0.718  0.203
  Li4501  Li1+  0.700  0.700  0.773  0.203
  Li4363  Li1+  0.729  0.604  0.031  0.204
  Li1935  Li1+  0.300  0.700  0.191  0.204
  Li3433  Li1+  0.404  0.933  0.375  0.204
  Li4359  Li1+  0.667  0.667  0.000  0.204
  Li4433  Li1+  0.750  0.750  0.486  0.205
  Li3541  Li1+  0.500  0.900  0.773  0.205
  Li495  Li1+  0.100  0.500  0.191  0.207
  Li5176  Li1+  0.867  0.267  0.436  0.208
  Li4106  Li1+  0.650  0.446  0.042  0.208
  Li939  Li1+  0.150  0.750  0.996  0.208
  Li4243  Li1+  0.700  0.500  0.736  0.208
  Li5614  Li1+  0.933  0.604  0.375  0.208
  Li5414  Li1+  0.900  0.500  0.500  0.209
  Li4220  Li1+  0.729  0.529  0.419  0.210
  Li4256  Li1+  0.700  0.500  0.718  0.210
  Li4843  Li1+  0.929  0.004  0.031  0.210
  Li4646  Li1+  0.700  0.900  0.300  0.211
  Li1952  Li1+  0.300  0.700  0.118  0.211
  Li5696  Li1+  0.900  0.700  0.718  0.212
  Li1208  Li1+  0.250  0.050  0.059  0.212
  Li5399  Li1+  0.896  0.500  0.446  0.212
  Li2218  Li1+  0.350  0.950  0.304  0.212
  Li4782  Li1+  0.696  0.896  0.810  0.212
  Li2927  Li1+  0.529  0.408  0.194  0.212
  Li181  Li1+  0.100  0.100  0.773  0.212
  Li2195  Li1+  0.208  0.929  0.194  0.213
  Li78  Li1+  0.096  0.096  0.210  0.213
  Li5439  Li1+  0.900  0.500  0.791  0.214
  Li3361  Li1+  0.446  0.846  0.024  0.214
  Li3382  Li1+  0.404  0.929  0.031  0.214
  Li1618  Li1+  0.300  0.300  0.754  0.214
  Li40  Li1+  0.067  0.067  0.036  0.214
  Li1215  Li1+  0.300  0.100  0.191  0.216
  Li2539  Li1+  0.529  0.004  0.431  0.217
  Li77  Li1+  0.150  0.146  0.214  0.217
  Li3488  Li1+  0.500  0.900  0.518  0.217
  Li5264  Li1+  0.900  0.300  0.918  0.217
  Li5925  Li1+  0.950  0.946  0.632  0.218
  Li3982  Li1+  0.733  0.204  0.575  0.218
  Li2105  Li1+  0.267  0.796  0.752  0.218
  Li3679  Li1+  0.700  0.100  0.282  0.218
  Li5725  Li1+  0.996  0.667  0.952  0.218
  Li2294  Li1+  0.300  0.900  0.500  0.219
  Li420  Li1+  0.096  0.296  0.628  0.219
  Li188  Li1+  0.129  0.129  0.619  0.219
  Li4508  Li1+  0.729  0.729  0.619  0.220
  Li3190  Li1+  0.404  0.729  0.231  0.220
  Li2607  Li1+  0.500  0.100  0.991  0.221
  Li866  Li1+  0.150  0.750  0.741  0.221
  Li5076  Li1+  0.896  0.296  0.028  0.221
  Li5655  Li1+  0.867  0.667  0.400  0.222
  Li2798  Li1+  0.500  0.300  0.664  0.222
  Li2147  Li1+  0.208  0.729  0.994  0.223
  Li2719  Li1+  0.500  0.300  0.282  0.223
  Li1507  Li1+  0.300  0.300  0.336  0.223
  Li1070  Li1+  0.100  0.900  0.464  0.224
  Li4320  Li1+  0.792  0.467  0.989  0.224
  Li5547  Li1+  0.950  0.750  0.196  0.224
  Li4800  Li1+  0.792  0.867  0.989  0.224
  Li2774  Li1+  0.500  0.300  0.500  0.225
  Li1323  Li1+  0.350  0.150  0.596  0.225
  Li2052  Li1+  0.296  0.696  0.428  0.225
  Li959  Li1+  0.129  0.608  0.994  0.226
  Li3573  Li1+  0.550  0.946  0.832  0.226
  Li3808  Li1+  0.750  0.150  0.868  0.226
  Li1266  Li1+  0.250  0.050  0.296  0.226
  Li1887  Li1+  0.300  0.500  0.991  0.227
  Li3058  Li1+  0.500  0.500  0.754  0.227
  Li4448  Li1+  0.700  0.700  0.518  0.227
  Li1662  Li1+  0.296  0.296  0.810  0.227
  Li654  Li1+  0.096  0.496  0.610  0.227
  Li942  Li1+  0.096  0.696  0.810  0.228
  Li289  Li1+  0.046  0.246  0.224  0.228
  Li4346  Li1+  0.650  0.646  0.042  0.229
  Li1838  Li1+  0.300  0.500  0.664  0.229
  Li1862  Li1+  0.300  0.500  0.700  0.230
  Li4878  Li1+  0.896  0.096  0.210  0.230
  Li5813  Li1+  0.850  0.850  0.368  0.231
  Li4189  Li1+  0.796  0.467  0.552  0.231
  Li5019  Li1+  0.950  0.150  0.996  0.231
  Li4190  Li1+  0.700  0.500  0.464  0.231
  Li111  Li1+  0.100  0.100  0.591  0.231
  Li3062  Li1+  0.500  0.500  0.700  0.232
  Li904  Li1+  0.067  0.667  0.636  0.232
  Li895  Li1+  0.100  0.700  0.682  0.233
  Li3344  Li1+  0.500  0.700  0.918  0.233
  Li2030  Li1+  0.300  0.700  0.464  0.233
  Li3776  Li1+  0.700  0.100  0.718  0.234
  Li3758  Li1+  0.700  0.100  0.664  0.234
  Li4928  Li1+  0.900  0.100  0.518  0.234
  Li4838  Li1+  0.900  0.100  0.100  0.234
  Li1867  Li1+  0.329  0.404  0.631  0.235
  Li5446  Li1+  0.804  0.529  0.631  0.235
  Li4660  Li1+  0.750  0.950  0.577  0.235
  Li3728  Li1+  0.700  0.100  0.518  0.235
  Li2991  Li1+  0.500  0.500  0.591  0.236
  Li2047  Li1+  0.300  0.700  0.482  0.236
  Li182  Li1+  0.100  0.100  0.700  0.237
  Li4504  Li1+  0.667  0.667  0.636  0.237
  Li812  Li1+  0.129  0.729  0.219  0.237
  Li4719  Li1+  0.700  0.900  0.791  0.238
  Li2148  Li1+  0.296  0.696  0.828  0.238
  Li5317  Li1+  0.900  0.500  0.173  0.238
  Li5823  Li1+  0.900  0.900  0.391  0.238
  Li3597  Li1+  0.533  0.804  0.939  0.238
  Li5515  Li1+  0.929  0.404  0.831  0.238
  Li3686  Li1+  0.700  0.100  0.300  0.239
  Li1075  Li1+  0.100  0.900  0.536  0.239
  Li418  Li1+  0.100  0.300  0.754  0.239
  Li262  Li1+  0.004  0.329  0.031  0.239
  Li1664  Li1+  0.300  0.300  0.918  0.239
  Li5794  Li1+  0.900  0.900  0.154  0.240
  Li2398  Li1+  0.333  0.804  0.975  0.240
  Li1536  Li1+  0.392  0.267  0.389  0.240
  Li3818  Li1+  0.650  0.046  0.842  0.241
  Li878  Li1+  0.100  0.700  0.664  0.241
  Li34  Li1+  0.100  0.100  0.154  0.241
  Li3915  Li1+  0.750  0.350  0.396  0.241
  Li1670  Li1+  0.300  0.300  0.900  0.241
  Li438  Li1+  0.046  0.246  0.987  0.242
  Li2478  Li1+  0.496  0.096  0.210  0.242
  Li1967  Li1+  0.329  0.608  0.194  0.243
  Li4744  Li1+  0.667  0.867  0.636  0.243
  Li5838  Li1+  0.896  0.896  0.210  0.243
  Li4663  Li1+  0.746  0.950  0.450  0.243
  Li3673  Li1+  0.604  0.133  0.375  0.243
  Li270  Li1+  0.096  0.296  0.010  0.244
  Li2689  Li1+  0.446  0.246  0.224  0.244
  Li3494  Li1+  0.500  0.900  0.500  0.245
  Li3682  Li1+  0.700  0.100  0.354  0.245
  Li4016  Li1+  0.700  0.300  0.718  0.245
  Li3296  Li1+  0.500  0.700  0.718  0.246
  Li759  Li1+  0.067  0.667  0.000  0.246
  Li908  Li1+  0.129  0.729  0.619  0.246
  Li247  Li1+  0.146  0.350  0.050  0.246
  Li2528  Li1+  0.500  0.100  0.518  0.247
  Li3775  Li1+  0.700  0.100  0.682  0.247
  Li1880  Li1+  0.250  0.450  0.859  0.248
  Li1018  Li1+  0.150  0.950  0.304  0.248
  Li2467  Li1+  0.500  0.100  0.336  0.248
  Li2947  Li1+  0.500  0.500  0.336  0.249
  Li2515  Li1+  0.500  0.100  0.536  0.250
  Li5011  Li1+  0.900  0.100  0.936  0.250
  Li3664  Li1+  0.750  0.150  0.268  0.250
  Li3135  Li1+  0.500  0.700  0.191  0.250
  Li949  Li1+  0.100  0.700  0.973  0.251
  Li4165  Li1+  0.700  0.500  0.373  0.251
  Li2914  Li1+  0.500  0.500  0.154  0.251
  Li3637  Li1+  0.700  0.100  0.173  0.251
  Li4805  Li1+  0.850  0.050  0.168  0.252
  Li1729  Li1+  0.246  0.446  0.224  0.252
  Li2292  Li1+  0.296  0.896  0.428  0.252
  Li1622  Li1+  0.300  0.300  0.700  0.253
  Li564  Li1+  0.096  0.496  0.228  0.253
  Li567  Li1+  0.067  0.467  0.200  0.254
  Li4616  Li1+  0.650  0.850  0.259  0.254
  Li4114  Li1+  0.700  0.500  0.154  0.254
  Li992  Li1+  0.100  0.900  0.118  0.255
  Li2966  Li1+  0.500  0.500  0.300  0.255
  Li4978  Li1+  0.900  0.100  0.754  0.255
  Li4548  Li1+  0.696  0.696  0.828  0.255
  Li4610  Li1+  0.750  0.950  0.341  0.255
  Li5309  Li1+  0.950  0.546  0.014  0.256
  Li1334  Li1+  0.300  0.100  0.500  0.256
  Li4959  Li1+  0.900  0.100  0.791  0.256
  Li4922  Li1+  0.850  0.046  0.442  0.256
  Li1529  Li1+  0.267  0.396  0.352  0.257
  Li2211  Li1+  0.250  0.850  0.332  0.257
  Li1398  Li1+  0.246  0.046  0.987  0.257
  Li767  Li1+  0.129  0.608  0.194  0.257
  Li134  Li1+  0.100  0.100  0.500  0.257
  Li2575  Li1+  0.500  0.100  0.682  0.258
  Li1422  Li1+  0.296  0.096  0.810  0.259
  Li3678  Li1+  0.696  0.096  0.210  0.259
  Li3974  Li1+  0.700  0.300  0.500  0.259
  Li1826  Li1+  0.350  0.550  0.741  0.259
  Li524  Li1+  0.129  0.529  0.019  0.260
  Li1807  Li1+  0.300  0.500  0.482  0.260
  Li4223  Li1+  0.729  0.408  0.594  0.261
  Li3286  Li1+  0.404  0.729  0.631  0.262
  Li2530  Li1+  0.500  0.100  0.554  0.262
  Li5122  Li1+  0.900  0.300  0.354  0.262
  Li687  Li1+  0.100  0.500  0.991  0.263
  Li5539  Li1+  0.900  0.700  0.136  0.263
  Li805  Li1+  0.100  0.700  0.373  0.263
  Li19  Li1+  0.100  0.100  0.136  0.263
  Li3293  Li1+  0.550  0.746  0.614  0.263
  Li4376  Li1+  0.650  0.650  0.259  0.263
  Li2676  Li1+  0.496  0.296  0.028  0.264
  Li5443  Li1+  0.900  0.500  0.736  0.264
  Li4107  Li1+  0.750  0.550  0.196  0.264
  Li1094  Li1+  0.100  0.900  0.500  0.264
  Li4958  Li1+  0.900  0.100  0.664  0.264
  Li2434  Li1+  0.500  0.100  0.154  0.265
  Li4230  Li1+  0.646  0.446  0.787  0.265
  Li4014  Li1+  0.696  0.296  0.610  0.265
  Li2342  Li1+  0.300  0.900  0.700  0.265
  Li852  Li1+  0.096  0.696  0.428  0.265
  Li2635  Li1+  0.529  0.004  0.831  0.266
  Li2371  Li1+  0.300  0.900  0.936  0.266
  Li2869  Li1+  0.500  0.300  0.973  0.266
  Li5307  Li1+  0.950  0.550  0.196  0.266
  Li3626  Li1+  0.650  0.046  0.042  0.267
  Li709  Li1+  0.100  0.500  0.973  0.267
  Li2318  Li1+  0.300  0.900  0.664  0.268
  Li5834  Li1+  0.850  0.846  0.242  0.269
  Li2550  Li1+  0.446  0.046  0.787  0.269
  Li3482  Li1+  0.450  0.846  0.442  0.269
  Li3205  Li1+  0.500  0.700  0.373  0.270
  Li3253  Li1+  0.500  0.700  0.573  0.270
  Li4740  Li1+  0.696  0.896  0.628  0.270
  Li5730  Li1+  0.850  0.650  0.896  0.271
  Li4168  Li1+  0.667  0.467  0.236  0.272
  Li1025  Li1+  0.150  0.950  0.286  0.272
  Li1908  Li1+  0.296  0.496  0.828  0.273
  Li2379  Li1+  0.350  0.950  0.996  0.273
  Li5564  Li1+  0.929  0.729  0.019  0.273
  Li4640  Li1+  0.700  0.900  0.318  0.273
  Li5362  Li1+  0.900  0.500  0.354  0.274
  Li2384  Li1+  0.300  0.900  0.918  0.276
  Li1055  Li1+  0.129  0.808  0.394  0.276
  Li3778  Li1+  0.700  0.100  0.754  0.276
  Li3877  Li1+  0.700  0.300  0.173  0.276
  Li1381  Li1+  0.300  0.100  0.773  0.277
  Li1568  Li1+  0.300  0.300  0.518  0.277
  Li4831  Li1+  0.900  0.100  0.082  0.277
  Li1717  Li1+  0.300  0.500  0.173  0.278
  Li4205  Li1+  0.750  0.546  0.414  0.278
  Li5287  Li1+  0.946  0.550  0.050  0.279
  Li2980  Li1+  0.550  0.550  0.577  0.279
  Li2089  Li1+  0.204  0.733  0.775  0.279
  Li756  Li1+  0.096  0.696  0.028  0.280
  Li67  Li1+  0.100  0.100  0.336  0.280
  Li4139  Li1+  0.650  0.450  0.314  0.281
  Li1199  Li1+  0.129  0.808  0.994  0.282
  Li607  Li1+  0.100  0.500  0.482  0.282
  Li3680  Li1+  0.700  0.100  0.318  0.282
  Li4627  Li1+  0.700  0.900  0.336  0.282
  Li2015  Li1+  0.329  0.608  0.394  0.282
  Li5935  Li1+  0.900  0.900  0.682  0.283
  Li1780  Li1+  0.350  0.550  0.577  0.283
  Li1614  Li1+  0.296  0.296  0.610  0.284
  Li3715  Li1+  0.700  0.100  0.536  0.284
  Li481  Li1+  0.046  0.446  0.024  0.284
  Li1909  Li1+  0.300  0.500  0.973  0.285
  Li5907  Li1+  0.850  0.850  0.732  0.286
  Li3245  Li1+  0.550  0.746  0.414  0.286
  Li5616  Li1+  0.992  0.667  0.389  0.287
  Li3184  Li1+  0.550  0.750  0.268  0.287
  Li1695  Li1+  0.300  0.500  0.191  0.287
  Li2907  Li1+  0.550  0.550  0.196  0.287
  Li991  Li1+  0.100  0.900  0.082  0.287
  Li5259  Li1+  0.950  0.350  0.996  0.288
  Li3523  Li1+  0.500  0.900  0.736  0.288
  Li2624  Li1+  0.500  0.100  0.918  0.289
  Li4796  Li1+  0.729  0.929  0.819  0.289
  Li2491  Li1+  0.529  0.004  0.231  0.290
  Li5471  Li1+  0.929  0.408  0.794  0.290
  Li1715  Li1+  0.208  0.529  0.194  0.290
  Li4629  Li1+  0.750  0.946  0.232  0.291
  Li1716  Li1+  0.296  0.496  0.028  0.291
  Li4981  Li1+  0.900  0.100  0.773  0.291
  Li5510  Li1+  0.900  0.500  0.900  0.292
  Li2480  Li1+  0.500  0.100  0.318  0.293
  Li566  Li1+  0.100  0.500  0.300  0.293
  Li927  Li1+  0.100  0.700  0.991  0.294
  Li2051  Li1+  0.208  0.729  0.594  0.294
  Li5162  Li1+  0.850  0.246  0.442  0.295
  Li4500  Li1+  0.696  0.696  0.628  0.295
  Li944  Li1+  0.100  0.700  0.918  0.295
  Li5648  Li1+  0.900  0.700  0.518  0.295
  Li847  Li1+  0.100  0.700  0.482  0.295
  Li3723  Li1+  0.750  0.150  0.596  0.296
  Li3246  Li1+  0.496  0.696  0.410  0.297
  Li735  Li1+  0.100  0.700  0.191  0.297
  Li979  Li1+  0.100  0.900  0.136  0.297
  Li3641  Li1+  0.667  0.196  0.152  0.298
  Li835  Li1+  0.100  0.700  0.536  0.298
  Li1160  Li1+  0.050  0.850  0.859  0.298
  Li5280  Li1+  0.992  0.267  0.989  0.299
  Li1806  Li1+  0.296  0.496  0.410  0.300
  Li4431  Li1+  0.700  0.700  0.591  0.300
  Li309  Li1+  0.150  0.346  0.232  0.300
  Li228  Li1+  0.096  0.096  0.828  0.300
  Li455  Li1+  0.096  0.300  0.846  0.300
  Li4485  Li1+  0.750  0.746  0.632  0.301
  Li1902  Li1+  0.296  0.496  0.810  0.303
  Li4927  Li1+  0.900  0.100  0.482  0.304
  Li1093  Li1+  0.100  0.900  0.573  0.305
  Li5917  Li1+  0.996  0.867  0.752  0.305
  Li123  Li1+  0.150  0.150  0.596  0.305
  Li1958  Li1+  0.300  0.700  0.100  0.305
  Li1232  Li1+  0.300  0.100  0.118  0.305
  Li3302  Li1+  0.500  0.700  0.700  0.306
  Li4932  Li1+  0.896  0.096  0.428  0.306
  Li2611  Li1+  0.500  0.100  0.936  0.306
  Li5671  Li1+  0.946  0.750  0.650  0.306
  Li2917  Li1+  0.500  0.500  0.173  0.307
  Li2770  Li1+  0.500  0.300  0.554  0.308
  Li1136  Li1+  0.100  0.900  0.718  0.308
  Li809  Li1+  0.067  0.796  0.352  0.308
  Li3951  Li1+  0.700  0.300  0.591  0.308
  Li3091  Li1+  0.500  0.500  0.936  0.308
  Li4316  Li1+  0.729  0.529  0.819  0.308
  Li4926  Li1+  0.896  0.096  0.410  0.308
  Li5587  Li1+  0.900  0.700  0.336  0.308
  Li2186  Li1+  0.250  0.846  0.042  0.308
  Li2462  Li1+  0.500  0.100  0.264  0.309
  Li3424  Li1+  0.550  0.950  0.268  0.309
  Li5814  Li1+  0.846  0.846  0.387  0.310
  Li3150  Li1+  0.496  0.696  0.010  0.310
  Li21  Li1+  0.150  0.146  0.032  0.311
  Li2622  Li1+  0.496  0.096  0.810  0.311
  Li2367  Li1+  0.300  0.900  0.991  0.313
  Li3520  Li1+  0.550  0.950  0.668  0.313
  Li1950  Li1+  0.296  0.696  0.010  0.314
  Li3970  Li1+  0.700  0.300  0.554  0.314
  Li5913  Li1+  0.850  0.850  0.678  0.315
  Li3493  Li1+  0.500  0.900  0.573  0.315
  Li4738  Li1+  0.700  0.900  0.754  0.315
  Li5727  Li1+  0.900  0.700  0.991  0.315
  Li3871  Li1+  0.700  0.300  0.082  0.316
  Li910  Li1+  0.133  0.604  0.775  0.316
  Li5982  Li1+  0.896  0.896  0.810  0.316
  Li2143  Li1+  0.300  0.700  0.882  0.316
  Li4947  Li1+  0.850  0.050  0.732  0.317
  Li1038  Li1+  0.096  0.896  0.210  0.317
  Li3919  Li1+  0.700  0.300  0.282  0.317
  Li2267  Li1+  0.250  0.850  0.514  0.317
  Li975  Li1+  0.100  0.900  0.191  0.317
  Li4383  Li1+  0.700  0.700  0.391  0.317
  Li350  Li1+  0.100  0.300  0.464  0.319
  Li1765  Li1+  0.300  0.500  0.373  0.320
  Li2849  Li1+  0.550  0.350  0.886  0.320
  Li2821  Li1+  0.500  0.300  0.773  0.320
  Li2581  Li1+  0.500  0.100  0.773  0.321
  Li2772  Li1+  0.496  0.296  0.428  0.321
  Li3215  Li1+  0.529  0.608  0.394  0.321
  Li3151  Li1+  0.500  0.700  0.082  0.321
  Li3924  Li1+  0.696  0.296  0.228  0.321
  Li4101  Li1+  0.750  0.546  0.032  0.322
  Li3512  Li1+  0.450  0.850  0.659  0.322
  Li4143  Li1+  0.700  0.500  0.391  0.322
  Li5318  Li1+  0.900  0.500  0.100  0.322
  Li3436  Li1+  0.446  0.846  0.206  0.323
  Li3793  Li1+  0.646  0.046  0.824  0.323
  Li660  Li1+  0.096  0.496  0.628  0.323
  Li3445  Li1+  0.500  0.900  0.373  0.324
  Li5091  Li1+  0.850  0.250  0.332  0.324
  Li1149  Li1+  0.133  0.804  0.739  0.324
  Li3711  Li1+  0.700  0.100  0.591  0.324
  Li2895  Li1+  0.500  0.500  0.191  0.325
  Li4783  Li1+  0.700  0.900  0.882  0.326
  Li3187  Li1+  0.500  0.700  0.336  0.327
  Li5673  Li1+  0.850  0.650  0.678  0.327
  Li5118  Li1+  0.896  0.296  0.210  0.328
  Li1903  Li1+  0.300  0.500  0.882  0.328
  Li5198  Li1+  0.900  0.300  0.664  0.328
  Li2002  Li1+  0.300  0.700  0.354  0.329
  Li1430  Li1+  0.300  0.100  0.900  0.329
  Li4463  Li1+  0.729  0.608  0.594  0.329
  Li4213  Li1+  0.700  0.500  0.573  0.329
  Li2958  Li1+  0.496  0.496  0.210  0.329
  Li5041  Li1+  0.846  0.246  0.024  0.330
  Li5701  Li1+  0.900  0.700  0.773  0.330
  Li4687  Li1+  0.700  0.900  0.482  0.331
  Li5735  Li1+  0.896  0.700  0.846  0.331
  Li4021  Li1+  0.700  0.300  0.773  0.331
  Li3200  Li1+  0.500  0.700  0.318  0.331
  Li1520  Li1+  0.300  0.300  0.318  0.331
  Li661  Li1+  0.100  0.500  0.773  0.332
  Li1330  Li1+  0.300  0.100  0.554  0.332
  Li2593  Li1+  0.446  0.046  0.824  0.332
  Li4542  Li1+  0.696  0.696  0.810  0.333
  Li4543  Li1+  0.700  0.700  0.882  0.334
  Li4712  Li1+  0.650  0.850  0.659  0.334
  Li2242  Li1+  0.300  0.900  0.354  0.334
  Li5226  Li1+  0.867  0.392  0.789  0.334
  Li5462  Li1+  0.900  0.500  0.700  0.335
  Li5728  Li1+  0.950  0.750  0.868  0.335
  Li1978  Li1+  0.350  0.750  0.304  0.336
  Li3967  Li1+  0.700  0.300  0.482  0.336
  Li4874  Li1+  0.850  0.046  0.242  0.336
  Li1969  Li1+  0.246  0.646  0.224  0.337
  Li5797  Li1+  0.900  0.900  0.173  0.338
  Li5279  Li1+  0.929  0.208  0.994  0.338
  Li4496  Li1+  0.700  0.700  0.718  0.338
  Li1221  Li1+  0.350  0.146  0.032  0.338
  Li2570  Li1+  0.450  0.046  0.642  0.338
  Li3780  Li1+  0.696  0.096  0.628  0.339
  Li5295  Li1+  0.900  0.500  0.191  0.339
  Li2144  Li1+  0.300  0.700  0.918  0.340
  Li2449  Li1+  0.446  0.046  0.224  0.340
  Li3734  Li1+  0.700  0.100  0.500  0.340
  Li5527  Li1+  0.946  0.750  0.050  0.340
  Li2142  Li1+  0.296  0.696  0.810  0.341
  Li850  Li1+  0.100  0.700  0.554  0.341
  Li1267  Li1+  0.300  0.100  0.336  0.341
  Li3462  Li1+  0.446  0.846  0.587  0.341
  Li961  Li1+  0.046  0.846  0.024  0.342
  Li529  Li1+  0.046  0.446  0.224  0.342
  Li4829  Li1+  0.950  0.146  0.014  0.343
  Li2303  Li1+  0.329  0.808  0.594  0.343
  Li2984  Li1+  0.450  0.450  0.459  0.343
  Li470  Li1+  0.100  0.300  0.900  0.343
  Li2078  Li1+  0.300  0.700  0.664  0.343
  Li5534  Li1+  0.900  0.700  0.064  0.344
  Li4808  Li1+  0.850  0.050  0.059  0.344
  Li542  Li1+  0.100  0.500  0.264  0.344
  Li1984  Li1+  0.350  0.750  0.268  0.344
  Li1810  Li1+  0.300  0.500  0.554  0.345
  Li5595  Li1+  0.950  0.750  0.396  0.345
  Li5211  Li1+  0.950  0.350  0.796  0.345
  Li3326  Li1+  0.500  0.700  0.864  0.345
  Li1424  Li1+  0.300  0.100  0.918  0.345
  Li831  Li1+  0.100  0.700  0.591  0.345
  Li5798  Li1+  0.900  0.900  0.100  0.346
  Li3014  Li1+  0.500  0.500  0.500  0.346
  Li4452  Li1+  0.696  0.696  0.428  0.346
  Li4675  Li1+  0.700  0.900  0.536  0.346
  Li4250  Li1+  0.650  0.446  0.642  0.347
  Li1179  Li1+  0.150  0.950  0.996  0.347
  Li3254  Li1+  0.500  0.700  0.500  0.347
  Li1784  Li1+  0.250  0.450  0.459  0.347
  Li565  Li1+  0.100  0.500  0.373  0.348
  Li5767  Li1+  0.946  0.950  0.050  0.348
  Li359  Li1+  0.096  0.300  0.446  0.348
  Li5796  Li1+  0.896  0.896  0.028  0.348
  Li5045  Li1+  0.850  0.250  0.168  0.349
  Li1171  Li1+  0.100  0.900  0.936  0.349
  Li235  Li1+  0.129  0.004  0.831  0.349
  Li4396  Li1+  0.646  0.646  0.206  0.349
  Li4203  Li1+  0.750  0.550  0.596  0.350
  Li5183  Li1+  0.929  0.208  0.594  0.350
  Li853  Li1+  0.100  0.700  0.573  0.351
  Li3407  Li1+  0.529  0.808  0.194  0.351
  Li3331  Li1+  0.500  0.700  0.936  0.351
  Li4445  Li1+  0.750  0.746  0.414  0.352
  Li2222  Li1+  0.300  0.900  0.264  0.353
  Li4117  Li1+  0.700  0.500  0.173  0.353
  Li4420  Li1+  0.750  0.750  0.577  0.354
  Li158  Li1+  0.100  0.100  0.664  0.354
  Li610  Li1+  0.100  0.500  0.554  0.354
  Li5519  Li1+  0.929  0.408  0.994  0.355
  Li5933  Li1+  0.950  0.946  0.614  0.355
  Li1391  Li1+  0.329  0.008  0.794  0.355
  Li2335  Li1+  0.300  0.900  0.682  0.355
  Li1957  Li1+  0.300  0.700  0.173  0.356
  Li4343  Li1+  0.696  0.700  0.046  0.356
  Li2431  Li1+  0.500  0.100  0.082  0.357
  Li3959  Li1+  0.696  0.300  0.446  0.359
  Li1663  Li1+  0.300  0.300  0.882  0.359
  Li2223  Li1+  0.300  0.900  0.391  0.359
  Li1328  Li1+  0.300  0.100  0.518  0.359
  Li316  Li1+  0.046  0.246  0.206  0.359
  Li4088  Li1+  0.650  0.450  0.059  0.360
  Li3006  Li1+  0.496  0.496  0.410  0.360
  Li941  Li1+  0.150  0.746  0.814  0.360
  Li366  Li1+  0.096  0.296  0.410  0.361
  Li3172  Li1+  0.550  0.750  0.377  0.362
  Li5215  Li1+  0.900  0.300  0.682  0.362
  Li4923  Li1+  0.950  0.150  0.596  0.362
  Li3389  Li1+  0.550  0.946  0.014  0.363
  Li4166  Li1+  0.700  0.500  0.300  0.363
  Li5261  Li1+  0.950  0.346  0.814  0.364
  Li571  Li1+  0.129  0.404  0.231  0.364
  Li4759  Li1+  0.746  0.950  0.850  0.364
  Li5294  Li1+  0.900  0.500  0.064  0.364
  Li710  Li1+  0.100  0.500  0.900  0.364
  Li5830  Li1+  0.804  0.929  0.231  0.364
  Li4399  Li1+  0.700  0.700  0.282  0.364
  Li415  Li1+  0.100  0.300  0.682  0.365
  Li1759  Li1+  0.300  0.500  0.282  0.366
  Li1167  Li1+  0.100  0.900  0.991  0.366
  Li2692  Li1+  0.550  0.350  0.377  0.366
  Li5048  Li1+  0.850  0.250  0.059  0.366
  Li5072  Li1+  0.900  0.300  0.118  0.366
  Li383  Li1+  0.129  0.208  0.594  0.367
  Li3874  Li1+  0.700  0.300  0.154  0.367
  Li5159  Li1+  0.896  0.300  0.446  0.367
  Li3903  Li1+  0.700  0.300  0.391  0.367
  Li776  Li1+  0.050  0.650  0.259  0.368
  Li4837  Li1+  0.900  0.100  0.173  0.368
  Li4215  Li1+  0.667  0.467  0.400  0.369
  Li686  Li1+  0.100  0.500  0.864  0.369
  Li3211  Li1+  0.529  0.604  0.231  0.369
  Li3866  Li1+  0.650  0.246  0.042  0.369
  Li2438  Li1+  0.500  0.100  0.100  0.369
  Li5445  Li1+  0.950  0.546  0.632  0.369
  Li4304  Li1+  0.700  0.500  0.918  0.370
  Li764  Li1+  0.129  0.729  0.019  0.370
  Li5815  Li1+  0.946  0.950  0.250  0.370
  Li2533  Li1+  0.500  0.100  0.573  0.370
  Li3290  Li1+  0.450  0.646  0.642  0.370
  Li3487  Li1+  0.500  0.900  0.482  0.371
  Li4022  Li1+  0.700  0.300  0.700  0.371
  Li1997  Li1+  0.350  0.746  0.214  0.371
  Li3438  Li1+  0.496  0.896  0.210  0.371
  Li3368  Li1+  0.450  0.850  0.059  0.371
  Li5308  Li1+  0.846  0.446  0.006  0.372
  Li4976  Li1+  0.900  0.100  0.718  0.372
  Li5923  Li1+  0.900  0.900  0.736  0.373
  Li4094  Li1+  0.700  0.500  0.064  0.373
  Li5886  Li1+  0.896  0.896  0.410  0.373
  Li4327  Li1+  0.746  0.750  0.050  0.373
  Li5672  Li1+  0.850  0.650  0.659  0.374
  Li1468  Li1+  0.246  0.246  0.006  0.374
  Li2046  Li1+  0.296  0.696  0.410  0.374
  Li292  Li1+  0.150  0.350  0.377  0.374
  Li132  Li1+  0.096  0.096  0.428  0.374
  Li1646  Li1+  0.300  0.300  0.864  0.375
  Li1519  Li1+  0.300  0.300  0.282  0.375
  Li4836  Li1+  0.896  0.096  0.028  0.375
  Li4561  Li1+  0.646  0.846  0.024  0.376
  Li230  Li1+  0.100  0.100  0.900  0.376
  Li5107  Li1+  0.900  0.300  0.336  0.376
  Li32  Li1+  0.100  0.100  0.118  0.377
  Li815  Li1+  0.129  0.608  0.394  0.377
  Li2333  Li1+  0.350  0.946  0.614  0.377
  Li2742  Li1+  0.446  0.246  0.587  0.377
  Li3348  Li1+  0.496  0.696  0.828  0.377
  Li446  Li1+  0.100  0.300  0.864  0.378
  Li3781  Li1+  0.700  0.100  0.773  0.379
  Li562  Li1+  0.100  0.500  0.354  0.379
  Li3104  Li1+  0.500  0.500  0.918  0.379
  Li5310  Li1+  0.896  0.496  0.010  0.380
  Li1408  Li1+  0.350  0.150  0.868  0.380
  Li804  Li1+  0.096  0.696  0.228  0.382
  Li174  Li1+  0.096  0.096  0.610  0.383
  Li3876  Li1+  0.696  0.296  0.028  0.383
  Li4271  Li1+  0.729  0.408  0.794  0.384
  Li2911  Li1+  0.500  0.500  0.082  0.387
  Li4980  Li1+  0.896  0.096  0.628  0.387
  Li2649  Li1+  0.450  0.250  0.078  0.387
  Li2960  Li1+  0.500  0.500  0.318  0.387
  Li4011  Li1+  0.750  0.350  0.796  0.388
  Li2095  Li1+  0.300  0.700  0.682  0.388
  Li1207  Li1+  0.346  0.150  0.050  0.388
  Li4784  Li1+  0.700  0.900  0.918  0.388
  Li4207  Li1+  0.700  0.500  0.482  0.389
  Li249  Li1+  0.050  0.250  0.078  0.389
  Li4531  Li1+  0.700  0.700  0.936  0.389
  Li307  Li1+  0.100  0.300  0.336  0.390
  Li56  Li1+  0.050  0.050  0.259  0.390
  Li4779  Li1+  0.750  0.950  0.996  0.391
  Li2083  Li1+  0.300  0.700  0.736  0.391
  Li5270  Li1+  0.900  0.300  0.900  0.391
  Li3559  Li1+  0.546  0.950  0.850  0.392
  Li1971  Li1+  0.250  0.650  0.332  0.392
  Li1226  Li1+  0.250  0.046  0.042  0.393
  Li2288  Li1+  0.300  0.900  0.518  0.393
  Li509  Li1+  0.150  0.546  0.014  0.393
  Li15  Li1+  0.100  0.100  0.191  0.393
  Li2231  Li1+  0.296  0.900  0.246  0.393
  Li1380  Li1+  0.296  0.096  0.628  0.394
  Li1672  Li1+  0.267  0.267  0.836  0.394
  Li4061  Li1+  0.750  0.346  0.814  0.395
  Li1423  Li1+  0.300  0.100  0.882  0.395
  Li1186  Li1+  0.100  0.900  0.954  0.396
  Li3886  Li1+  0.733  0.204  0.175  0.396
  Li36  Li1+  0.096  0.096  0.028  0.396
  Li3470  Li1+  0.500  0.900  0.464  0.396
  Li127  Li1+  0.100  0.100  0.482  0.397
  Li1304  Li1+  0.250  0.050  0.459  0.397
  Li3517  Li1+  0.596  0.867  0.752  0.397
  Li5665  Li1+  0.846  0.646  0.624  0.397
  Li3704  Li1+  0.650  0.050  0.459  0.399
  Li1116  Li1+  0.050  0.850  0.750  0.399
  Li2471  Li1+  0.496  0.100  0.246  0.399
  Li5486  Li1+  0.900  0.500  0.864  0.400
  Li5407  Li1+  0.900  0.500  0.482  0.400
  Li3750  Li1+  0.646  0.046  0.787  0.401
  Li3485  Li1+  0.550  0.946  0.414  0.401
  Li559  Li1+  0.100  0.500  0.282  0.402
  Li2275  Li1+  0.300  0.900  0.536  0.403
  Li2661  Li1+  0.550  0.346  0.032  0.404
  Li1567  Li1+  0.300  0.300  0.482  0.404
  Li2141  Li1+  0.350  0.746  0.814  0.404
  Li4159  Li1+  0.700  0.500  0.282  0.404
  Li639  Li1+  0.100  0.500  0.791  0.404
  Li2513  Li1+  0.550  0.150  0.486  0.404
  Li1183  Li1+  0.100  0.900  0.882  0.406
  Li3386  Li1+  0.450  0.846  0.042  0.407
  Li5367  Li1+  0.867  0.467  0.200  0.408
  Li5938  Li1+  0.900  0.900  0.754  0.408
  Li4356  Li1+  0.696  0.696  0.028  0.408
  Li5166  Li1+  0.896  0.296  0.410  0.408
  Li802  Li1+  0.100  0.700  0.354  0.408
  Li3966  Li1+  0.696  0.296  0.410  0.410
  Li2522  Li1+  0.450  0.046  0.442  0.410
  Li367  Li1+  0.100  0.300  0.482  0.411
  Li3925  Li1+  0.700  0.300  0.373  0.412
  Li950  Li1+  0.100  0.700  0.900  0.412
  Li4665  Li1+  0.650  0.850  0.478  0.413
  Li314  Li1+  0.050  0.246  0.242  0.413
  Li898  Li1+  0.100  0.700  0.754  0.413
  Li5742  Li1+  0.896  0.696  0.810  0.414
  Li4494  Li1+  0.696  0.696  0.610  0.414
  Li4262  Li1+  0.700  0.500  0.700  0.414
  Li104  Li1+  0.050  0.050  0.459  0.415
  Li5818  Li1+  0.950  0.950  0.304  0.416
  Li4367  Li1+  0.729  0.608  0.194  0.416
  Li599  Li1+  0.096  0.500  0.446  0.416
  Li3350  Li1+  0.500  0.700  0.900  0.417
  Li4404  Li1+  0.696  0.696  0.228  0.417
  Li4110  Li1+  0.696  0.496  0.010  0.417
  Li5601  Li1+  0.950  0.750  0.359  0.417
  Li5114  Li1+  0.850  0.246  0.242  0.418
  Li919  Li1+  0.146  0.750  0.850  0.418
  Li4302  Li1+  0.696  0.496  0.810  0.418
  Li3139  Li1+  0.500  0.700  0.136  0.418
  Li2666  Li1+  0.450  0.246  0.042  0.418
  Li5357  Li1+  0.950  0.546  0.214  0.419
  Li1956  Li1+  0.296  0.696  0.028  0.419
  Li2470  Li1+  0.404  0.129  0.231  0.419
  Li3060  Li1+  0.496  0.496  0.628  0.419
  Li2035  Li1+  0.300  0.700  0.536  0.419
  Li3900  Li1+  0.650  0.250  0.350  0.419
  Li5089  Li1+  0.846  0.246  0.224  0.419
  Li324  Li1+  0.096  0.296  0.228  0.420
  Li2127  Li1+  0.300  0.700  0.991  0.421
  Li218  Li1+  0.050  0.046  0.842  0.421
  Li3710  Li1+  0.700  0.100  0.464  0.421
  Li1742  Li1+  0.300  0.500  0.264  0.421
  Li943  Li1+  0.100  0.700  0.882  0.421
  Li2341  Li1+  0.300  0.900  0.773  0.422
  Li5508  Li1+  0.896  0.496  0.828  0.423
  Li3486  Li1+  0.496  0.896  0.410  0.423
  Li2511  Li1+  0.500  0.100  0.591  0.424
  Li4880  Li1+  0.900  0.100  0.318  0.425
  Li5253  Li1+  0.950  0.346  0.832  0.425
  Li4142  Li1+  0.700  0.500  0.264  0.425
  Li1542  Li1+  0.246  0.246  0.587  0.425
  Li4716  Li1+  0.650  0.850  0.750  0.426
  Li3774  Li1+  0.696  0.096  0.610  0.426
  Li3608  Li1+  0.650  0.050  0.059  0.426
  Li4644  Li1+  0.696  0.896  0.228  0.426
  Li4741  Li1+  0.700  0.900  0.773  0.426
  Li1399  Li1+  0.346  0.150  0.850  0.427
  Li4158  Li1+  0.696  0.496  0.210  0.427
  Li2862  Li1+  0.496  0.296  0.810  0.427
  Li2670  Li1+  0.496  0.296  0.010  0.427
  Li1236  Li1+  0.296  0.096  0.028  0.428
  Li757  Li1+  0.100  0.700  0.173  0.429
  Li751  Li1+  0.100  0.700  0.082  0.430
  Li2718  Li1+  0.496  0.296  0.210  0.430
  Li3846  Li1+  0.646  0.246  0.187  0.431
  Li1126  Li1+  0.004  0.929  0.631  0.432
  Li1831  Li1+  0.346  0.550  0.650  0.432
  Li2839  Li1+  0.546  0.350  0.850  0.433
  Li839  Li1+  0.096  0.700  0.446  0.433
  Li1562  Li1+  0.250  0.246  0.442  0.433
  Li3108  Li1+  0.496  0.496  0.828  0.433
  Li1087  Li1+  0.100  0.900  0.482  0.433
  Li2271  Li1+  0.300  0.900  0.591  0.433
  Li2695  Li1+  0.546  0.350  0.250  0.434
  Li2485  Li1+  0.500  0.100  0.373  0.435
  Li1278  Li1+  0.296  0.096  0.210  0.435
  Li4934  Li1+  0.900  0.100  0.500  0.435
  Li1086  Li1+  0.096  0.896  0.410  0.436
  Li3199  Li1+  0.500  0.700  0.282  0.437
  Li3271  Li1+  0.546  0.750  0.650  0.437
  Li5502  Li1+  0.896  0.496  0.810  0.437
  Li5844  Li1+  0.896  0.896  0.228  0.438
  Li838  Li1+  0.004  0.729  0.431  0.438
  Li2390  Li1+  0.300  0.900  0.900  0.438
  Li5066  Li1+  0.850  0.246  0.042  0.438
  Li5124  Li1+  0.896  0.296  0.228  0.439
  Li1358  Li1+  0.300  0.100  0.664  0.439
  Li4999  Li1+  0.946  0.150  0.850  0.439
  Li3283  Li1+  0.500  0.700  0.736  0.440
  Li3338  Li1+  0.450  0.646  0.842  0.440
  Li1861  Li1+  0.300  0.500  0.773  0.440
  Li970  Li1+  0.150  0.950  0.104  0.440
  Li1910  Li1+  0.300  0.500  0.900  0.441
  Li5022  Li1+  0.896  0.096  0.810  0.441
  Li4430  Li1+  0.700  0.700  0.464  0.442
  Li5195  Li1+  0.850  0.250  0.714  0.442
  Li890  Li1+  0.050  0.646  0.642  0.442
  Li5911  Li1+  0.946  0.950  0.650  0.442
  Li2943  Li1+  0.500  0.500  0.391  0.442
  Li3147  Li1+  0.550  0.750  0.196  0.442
  Li3043  Li1+  0.500  0.500  0.736  0.442
  Li374  Li1+  0.100  0.300  0.500  0.443
  Li1490  Li1+  0.350  0.350  0.341  0.443
  Li893  Li1+  0.150  0.746  0.614  0.444
  Li1928  Li1+  0.250  0.650  0.059  0.444
  Li4453  Li1+  0.700  0.700  0.573  0.445
  Li2930  Li1+  0.550  0.550  0.341  0.445
  Li2198  Li1+  0.300  0.900  0.100  0.446
  Li3004  Li1+  0.446  0.446  0.406  0.446
  Li3855  Li1+  0.700  0.300  0.191  0.446
  Li3916  Li1+  0.646  0.246  0.206  0.447
  Li4406  Li1+  0.700  0.700  0.300  0.447
  Li5884  Li1+  0.846  0.846  0.406  0.447
  Li4713  Li1+  0.650  0.850  0.678  0.448
  Li2929  Li1+  0.446  0.446  0.224  0.449
  Li4692  Li1+  0.696  0.896  0.428  0.450
  Li5221  Li1+  0.900  0.300  0.773  0.450
  Li2436  Li1+  0.496  0.096  0.028  0.450
  Li5743  Li1+  0.900  0.700  0.882  0.451
  Li1123  Li1+  0.100  0.900  0.736  0.451
  Li5593  Li1+  0.804  0.733  0.375  0.452
  Li1271  Li1+  0.296  0.100  0.246  0.452
  Li266  Li1+  0.050  0.246  0.042  0.452
  Li1455  Li1+  0.300  0.300  0.191  0.453
  Li4335  Li1+  0.700  0.700  0.191  0.453
  Li3707  Li1+  0.650  0.050  0.514  0.453
  Li3819  Li1+  0.750  0.150  0.996  0.453
  Li175  Li1+  0.100  0.100  0.682  0.454
  Li208  Li1+  0.150  0.150  0.868  0.454
  Li1526  Li1+  0.300  0.300  0.300  0.455
  Li3578  Li1+  0.450  0.846  0.842  0.456
  Li3038  Li1+  0.500  0.500  0.664  0.456
  Li5552  Li1+  0.900  0.700  0.118  0.456
  Li5690  Li1+  0.850  0.646  0.642  0.457
  Li5099  Li1+  0.850  0.250  0.314  0.457
  Li5549  Li1+  0.950  0.746  0.014  0.458
  Li741  Li1+  0.150  0.746  0.032  0.458
  Li1983  Li1+  0.300  0.700  0.391  0.458
  Li5678  Li1+  0.900  0.700  0.664  0.459
  Li4254  Li1+  0.696  0.496  0.610  0.459
  Li5142  Li1+  0.846  0.246  0.587  0.459
  Li1855  Li1+  0.300  0.500  0.682  0.459
  Li1566  Li1+  0.296  0.296  0.410  0.460
  Li3521  Li1+  0.550  0.950  0.686  0.461
  Li2282  Li1+  0.250  0.846  0.442  0.461
  Li3178  Li1+  0.550  0.750  0.304  0.461
  Li5647  Li1+  0.900  0.700  0.482  0.462
  Li5959  Li1+  0.946  0.950  0.850  0.462
  Li2724  Li1+  0.496  0.296  0.228  0.462
  Li4538  Li1+  0.650  0.646  0.842  0.463
  Li3583  Li1+  0.500  0.900  0.882  0.463
  Li1166  Li1+  0.100  0.900  0.864  0.463
  Li2102  Li1+  0.300  0.700  0.700  0.463
  Li1154  Li1+  0.150  0.950  0.941  0.464
  Li5685  Li1+  0.950  0.746  0.632  0.464
  Li5698  Li1+  0.900  0.700  0.754  0.464
  Li5788  Li1+  0.846  0.846  0.006  0.465
  Li4859  Li1+  0.850  0.050  0.314  0.465
  Li4821  Li1+  0.950  0.146  0.032  0.466
  Li5597  Li1+  0.950  0.746  0.214  0.466
  Li2534  Li1+  0.500  0.100  0.500  0.466
  Li5526  Li1+  0.846  0.646  0.187  0.466
  Li1470  Li1+  0.296  0.296  0.010  0.466
  Li1040  Li1+  0.100  0.900  0.318  0.466
  Li3629  Li1+  0.750  0.146  0.014  0.467
  Li1809  Li1+  0.350  0.550  0.559  0.467
  Li2500  Li1+  0.550  0.150  0.577  0.467
  Li2764  Li1+  0.446  0.246  0.406  0.468
  Li5683  Li1+  0.900  0.700  0.736  0.468
  Li5054  Li1+  0.900  0.300  0.064  0.468
  Li1633  Li1+  0.246  0.246  0.824  0.468
  Li3684  Li1+  0.696  0.096  0.228  0.468
  Li3998  Li1+  0.700  0.300  0.664  0.469
  Li1495  Li1+  0.346  0.350  0.250  0.469
  Li4550  Li1+  0.700  0.700  0.900  0.469
  Li2262  Li1+  0.246  0.846  0.587  0.470
  Li5364  Li1+  0.896  0.496  0.228  0.471
  Li2870  Li1+  0.500  0.300  0.900  0.471
  Li5799  Li1+  0.867  0.867  0.000  0.471
  Li2210  Li1+  0.350  0.950  0.341  0.472
  Li4801  Li1+  0.846  0.046  0.024  0.472
  Li4639  Li1+  0.700  0.900  0.282  0.473
  Li2373  Li1+  0.350  0.946  0.832  0.473
  Li3339  Li1+  0.550  0.750  0.996  0.474
  Li2207  Li1+  0.329  0.808  0.194  0.474
  Li2114  Li1+  0.350  0.750  0.941  0.474
  Li5030  Li1+  0.900  0.100  0.900  0.475
  Li4350  Li1+  0.696  0.696  0.010  0.475
  Li2177  Li1+  0.350  0.950  0.086  0.475
  Li2334  Li1+  0.296  0.896  0.610  0.476
  Li2409  Li1+  0.450  0.050  0.078  0.476
  Li2655  Li1+  0.500  0.300  0.191  0.477
  Li946  Li1+  0.100  0.700  0.954  0.477
  Li4303  Li1+  0.700  0.500  0.882  0.477
  Li4879  Li1+  0.900  0.100  0.282  0.478
  Li2486  Li1+  0.500  0.100  0.300  0.479
  Li3849  Li1+  0.650  0.250  0.078  0.479
  Li2964  Li1+  0.496  0.496  0.228  0.479
  Li3632  Li1+  0.700  0.100  0.118  0.479
  Li5983  Li1+  0.900  0.900  0.882  0.480
  Li74  Li1+  0.050  0.046  0.242  0.480
  Li606  Li1+  0.096  0.496  0.410  0.481
  Li785  Li1+  0.150  0.750  0.286  0.481
  Li3567  Li1+  0.500  0.900  0.991  0.481
  Li4374  Li1+  0.646  0.646  0.387  0.481
  Li2962  Li1+  0.500  0.500  0.354  0.481
  Li4851  Li1+  0.850  0.050  0.332  0.481
  Li4095  Li1+  0.700  0.500  0.191  0.482
  Li2720  Li1+  0.500  0.300  0.318  0.483
  Li3604  Li1+  0.750  0.150  0.177  0.483
  Li4819  Li1+  0.900  0.100  0.136  0.484
  Li1667  Li1+  0.208  0.329  0.994  0.484
  Li1707  Li1+  0.350  0.550  0.196  0.485
  Li2959  Li1+  0.500  0.500  0.282  0.486
  Li4425  Li1+  0.650  0.650  0.478  0.486
  Li5312  Li1+  0.900  0.500  0.118  0.486
  Li62  Li1+  0.100  0.100  0.264  0.486
  Li5546  Li1+  0.850  0.646  0.042  0.486
  Li3381  Li1+  0.550  0.946  0.032  0.486
  Li5487  Li1+  0.900  0.500  0.991  0.487
  Li1762  Li1+  0.300  0.500  0.354  0.487
  Li5524  Li1+  0.950  0.750  0.177  0.487
  Li3950  Li1+  0.700  0.300  0.464  0.487
  Li4735  Li1+  0.700  0.900  0.682  0.487
  Li320  Li1+  0.100  0.300  0.318  0.488
  Li4723  Li1+  0.700  0.900  0.736  0.488
  Li3822  Li1+  0.696  0.096  0.810  0.489
  Li1173  Li1+  0.150  0.946  0.832  0.489
  Li1134  Li1+  0.096  0.896  0.610  0.489
  Li1888  Li1+  0.350  0.550  0.868  0.489
  Li4519  Li1+  0.746  0.750  0.850  0.489
  Li2648  Li1+  0.450  0.250  0.059  0.490
  Li5222  Li1+  0.900  0.300  0.700  0.490
  Li1996  Li1+  0.246  0.646  0.206  0.490
  Li2139  Li1+  0.350  0.750  0.996  0.490
  Li4619  Li1+  0.650  0.850  0.314  0.490
  Li2176  Li1+  0.350  0.950  0.068  0.491
  Li4384  Li1+  0.750  0.750  0.268  0.491
  Li2290  Li1+  0.300  0.900  0.554  0.491
  Li326  Li1+  0.100  0.300  0.300  0.491
  Li5979  Li1+  0.950  0.950  0.996  0.491
  Li3457  Li1+  0.446  0.846  0.424  0.491
  Li4160  Li1+  0.700  0.500  0.318  0.492
  Li3054  Li1+  0.496  0.496  0.610  0.492
  Li4679  Li1+  0.696  0.900  0.446  0.492
  Li2323  Li1+  0.300  0.900  0.736  0.492
  Li2864  Li1+  0.500  0.300  0.918  0.494
  Li5408  Li1+  0.900  0.500  0.518  0.494
  Li584  Li1+  0.050  0.450  0.459  0.494
  Li1988  Li1+  0.350  0.750  0.322  0.494
  Li5493  Li1+  0.950  0.546  0.832  0.495
  Li3295  Li1+  0.500  0.700  0.682  0.496
  Li4138  Li1+  0.750  0.550  0.304  0.496
  Li5504  Li1+  0.900  0.500  0.918  0.496
  Li3656  Li1+  0.650  0.050  0.259  0.496
  Li546  Li1+  0.050  0.450  0.296  0.496
  Li5501  Li1+  0.950  0.546  0.814  0.497
  Li5693  Li1+  0.950  0.746  0.614  0.497
  Li1638  Li1+  0.246  0.246  0.987  0.498
  Li1951  Li1+  0.300  0.700  0.082  0.498
  Li702  Li1+  0.096  0.496  0.810  0.498
  Li2239  Li1+  0.300  0.900  0.282  0.498
  Li4910  Li1+  0.900  0.100  0.464  0.498
  Li3265  Li1+  0.446  0.646  0.624  0.498
  Li2767  Li1+  0.500  0.300  0.482  0.499
  Li1688  Li1+  0.250  0.450  0.059  0.499
  Li3938  Li1+  0.750  0.350  0.541  0.499
  Li5028  Li1+  0.896  0.096  0.828  0.500
  Li517  Li1+  0.100  0.500  0.173  0.500
  Li1598  Li1+  0.300  0.300  0.664  0.502
  Li2910  Li1+  0.496  0.496  0.010  0.502
  Li3134  Li1+  0.500  0.700  0.064  0.502
  Li2807  Li1+  0.496  0.300  0.646  0.502
  Li2036  Li1+  0.350  0.750  0.522  0.502
  Li4394  Li1+  0.650  0.646  0.242  0.502
  Li4760  Li1+  0.650  0.850  0.859  0.502
  Li80  Li1+  0.100  0.100  0.318  0.503
  Li1559  Li1+  0.296  0.300  0.446  0.503
  Li5990  Li1+  0.900  0.900  0.900  0.503
  Li3174  Li1+  0.446  0.646  0.387  0.504
  Li1472  Li1+  0.300  0.300  0.118  0.505
  Li459  Li1+  0.150  0.350  0.996  0.505
  Li407  Li1+  0.096  0.300  0.646  0.507
  Li1518  Li1+  0.296  0.296  0.210  0.507
  Li747  Li1+  0.150  0.750  0.196  0.507
  Li4493  Li1+  0.750  0.746  0.614  0.507
  Li2085  Li1+  0.350  0.746  0.632  0.508
  Li1034  Li1+  0.050  0.846  0.242  0.509
  Li3631  Li1+  0.700  0.100  0.082  0.509
  Li512  Li1+  0.100  0.500  0.118  0.509
  Li800  Li1+  0.100  0.700  0.318  0.510
  Li1057  Li1+  0.046  0.846  0.424  0.510
  Li3156  Li1+  0.496  0.696  0.028  0.510
  Li103  Li1+  0.146  0.150  0.450  0.510
  Li2034  Li1+  0.250  0.650  0.496  0.511
  Li865  Li1+  0.046  0.646  0.624  0.512
  Li1262  Li1+  0.300  0.100  0.264  0.512
  Li5653  Li1+  0.900  0.700  0.573  0.513
  Li2459  Li1+  0.450  0.050  0.314  0.513
  Li1325  Li1+  0.350  0.146  0.414  0.514
  Li3300  Li1+  0.496  0.696  0.628  0.514
  Li5604  Li1+  0.896  0.696  0.228  0.515
  Li4007  Li1+  0.696  0.300  0.646  0.515
  Li774  Li1+  0.046  0.646  0.387  0.516
  Li2519  Li1+  0.496  0.100  0.446  0.516
  Li5864  Li1+  0.850  0.850  0.459  0.516
  Li5412  Li1+  0.896  0.496  0.428  0.516
  Li4238  Li1+  0.700  0.500  0.664  0.517
  Li5598  Li1+  0.896  0.696  0.210  0.517
  Li1589  Li1+  0.250  0.250  0.768  0.517
  Li4401  Li1+  0.750  0.750  0.359  0.517
  Li3519  Li1+  0.500  0.900  0.791  0.517
  Li2987  Li1+  0.450  0.450  0.514  0.518
  Li1374  Li1+  0.296  0.096  0.610  0.518
  Li372  Li1+  0.096  0.296  0.428  0.518
  Li4766  Li1+  0.700  0.900  0.864  0.519
  Li4147  Li1+  0.700  0.500  0.336  0.519
  Li1985  Li1+  0.350  0.750  0.286  0.519
  Li2694  Li1+  0.446  0.246  0.387  0.520
  Li4856  Li1+  0.850  0.050  0.259  0.520
  Li4255  Li1+  0.700  0.500  0.682  0.520
  Li3099  Li1+  0.550  0.550  0.996  0.520
  Li883  Li1+  0.100  0.700  0.736  0.520
  Li2630  Li1+  0.500  0.100  0.900  0.521
  Li4734  Li1+  0.696  0.896  0.610  0.521
  Li3730  Li1+  0.700  0.100  0.554  0.521
  Li748  Li1+  0.046  0.646  0.006  0.521
  Li1938  Li1+  0.250  0.650  0.096  0.522
  Li2687  Li1+  0.529  0.208  0.194  0.523
  Li5071  Li1+  0.900  0.300  0.082  0.523
  Li1206  Li1+  0.246  0.046  0.187  0.523
  Li4400  Li1+  0.700  0.700  0.318  0.524
  Li974  Li1+  0.100  0.900  0.064  0.524
  Li2965  Li1+  0.500  0.500  0.373  0.524
  Li1977  Li1+  0.250  0.650  0.278  0.525
  Li820  Li1+  0.150  0.750  0.577  0.525
  Li4129  Li1+  0.646  0.446  0.224  0.525
  Li2048  Li1+  0.300  0.700  0.518  0.525
  Li4972  Li1+  0.846  0.046  0.606  0.525
  Li1947  Li1+  0.350  0.750  0.196  0.526
  Li3239  Li1+  0.496  0.700  0.446  0.526
  Li5098  Li1+  0.950  0.350  0.304  0.527
  Li49  Li1+  0.046  0.046  0.224  0.527
  Li2916  Li1+  0.496  0.496  0.028  0.527
  Li1071  Li1+  0.100  0.900  0.591  0.527
  Li124  Li1+  0.046  0.046  0.406  0.528
  Li2024  Li1+  0.250  0.650  0.459  0.528
  Li3440  Li1+  0.500  0.900  0.318  0.528
  Li5047  Li1+  0.946  0.350  0.050  0.529
  Li306  Li1+  0.050  0.250  0.296  0.529
  Li1031  Li1+  0.096  0.900  0.246  0.529
  Li5431  Li1+  0.946  0.550  0.650  0.529
  Li3  Li1+  0.050  0.050  0.132  0.530
  Li2066  Li1+  0.350  0.750  0.741  0.530
  Li468  Li1+  0.096  0.296  0.828  0.531
  Li3601  Li1+  0.646  0.046  0.024  0.532
  Li4730  Li1+  0.650  0.846  0.642  0.532
  Li3110  Li1+  0.500  0.500  0.900  0.532
  Li5774  Li1+  0.900  0.900  0.064  0.532
  Li1895  Li1+  0.296  0.500  0.846  0.532
  Li5024  Li1+  0.900  0.100  0.918  0.532
  Li1079  Li1+  0.096  0.900  0.446  0.532
  Li806  Li1+  0.100  0.700  0.300  0.532
  Li5984  Li1+  0.900  0.900  0.918  0.532
  Li257  Li1+  0.150  0.350  0.086  0.533
  Li3007  Li1+  0.500  0.500  0.482  0.533
  Li2383  Li1+  0.300  0.900  0.882  0.533
  Li638  Li1+  0.100  0.500  0.664  0.534
  Li496  Li1+  0.150  0.550  0.068  0.534
  Li3415  Li1+  0.546  0.950  0.250  0.534
  Li2479  Li1+  0.500  0.100  0.282  0.534
  Li3802  Li1+  0.750  0.150  0.904  0.534
  Li1621  Li1+  0.300  0.300  0.773  0.534
  Li5167  Li1+  0.900  0.300  0.482  0.535
  Li3935  Li1+  0.729  0.208  0.394  0.536
  Li1469  Li1+  0.350  0.346  0.014  0.536
  Li4526  Li1+  0.700  0.700  0.864  0.536
  Li3667  Li1+  0.700  0.100  0.336  0.536
  Li84  Li1+  0.096  0.096  0.228  0.537
  Li4033  Li1+  0.646  0.246  0.824  0.537
  Li2709  Li1+  0.550  0.346  0.232  0.538
  Li4326  Li1+  0.646  0.646  0.187  0.538
  Li2990  Li1+  0.500  0.500  0.464  0.538
  Li256  Li1+  0.150  0.350  0.068  0.538
  Li3628  Li1+  0.646  0.046  0.006  0.538
  Li3899  Li1+  0.650  0.250  0.314  0.538
  Li4642  Li1+  0.700  0.900  0.354  0.539
  Li2279  Li1+  0.296  0.900  0.446  0.539
  Li2789  Li1+  0.450  0.250  0.768  0.539
  Li276  Li1+  0.096  0.296  0.028  0.539
  Li673  Li1+  0.046  0.446  0.824  0.540
  Li1107  Li1+  0.050  0.850  0.732  0.541
  Li1011  Li1+  0.050  0.850  0.332  0.541
  Li3965  Li1+  0.750  0.346  0.414  0.542
  Li5023  Li1+  0.900  0.100  0.882  0.542
  Li3342  Li1+  0.496  0.696  0.810  0.543
  Li3505  Li1+  0.446  0.846  0.624  0.544
  Li5973  Li1+  0.950  0.946  0.832  0.545
  Li395  Li1+  0.050  0.250  0.714  0.546
  Li3870  Li1+  0.696  0.296  0.010  0.546
  Li2598  Li1+  0.446  0.046  0.987  0.546
  Li869  Li1+  0.050  0.650  0.768  0.546
  Li3725  Li1+  0.750  0.146  0.414  0.547
  Li725  Li1+  0.050  0.650  0.168  0.547
  Li3726  Li1+  0.696  0.096  0.410  0.547
  Li1476  Li1+  0.296  0.296  0.028  0.547
  Li1492  Li1+  0.350  0.350  0.377  0.547
  Li1747  Li1+  0.300  0.500  0.336  0.548
  Li1228  Li1+  0.246  0.046  0.006  0.548
  Li758  Li1+  0.100  0.700  0.100  0.548
  Li1685  Li1+  0.250  0.450  0.168  0.548
  Li8  Li1+  0.050  0.050  0.059  0.548
  Li4372  Li1+  0.750  0.750  0.377  0.548
  Li2366  Li1+  0.300  0.900  0.864  0.549
  Li5080  Li1+  0.867  0.267  0.036  0.549
  Li3614  Li1+  0.700  0.100  0.064  0.550
  Li1022  Li1+  0.100  0.900  0.264  0.550
  Li1132  Li1+  0.046  0.846  0.606  0.551
  Li511  Li1+  0.100  0.500  0.082  0.551
  Li2846  Li1+  0.500  0.300  0.864  0.551
  Li5573  Li1+  0.850  0.650  0.368  0.552
  Li2842  Li1+  0.550  0.350  0.904  0.552
  Li4423  Li1+  0.746  0.750  0.450  0.552
  Li5940  Li1+  0.896  0.896  0.628  0.552
  Li5  Li1+  0.050  0.050  0.168  0.552
  Li1396  Li1+  0.350  0.150  0.977  0.552
  Li1615  Li1+  0.300  0.300  0.682  0.553
  Li5722  Li1+  0.950  0.750  0.904  0.553
  Li5855  Li1+  0.929  0.808  0.394  0.553
  Li3169  Li1+  0.446  0.646  0.224  0.553
  Li3555  Li1+  0.450  0.850  0.932  0.554
  Li965  Li1+  0.050  0.850  0.168  0.554
  Li5863  Li1+  0.946  0.950  0.450  0.554
  Li3102  Li1+  0.496  0.496  0.810  0.554
  Li2087  Li1+  0.296  0.700  0.646  0.555
  Li1311  Li1+  0.300  0.100  0.591  0.555
  Li1640  Li1+  0.250  0.250  0.859  0.555
  Li5726  Li1+  0.900  0.700  0.864  0.556
  Li1511  Li1+  0.296  0.300  0.246  0.557
  Li1525  Li1+  0.300  0.300  0.373  0.558
  Li5637  Li1+  0.950  0.746  0.432  0.559
  Li1184  Li1+  0.100  0.900  0.918  0.559
  Li2508  Li1+  0.450  0.050  0.550  0.559
  Li900  Li1+  0.096  0.696  0.628  0.559
  Li3848  Li1+  0.650  0.250  0.059  0.560
  Li3821  Li1+  0.750  0.146  0.814  0.560
  Li4855  Li1+  0.946  0.150  0.250  0.561
  Li5883  Li1+  0.950  0.950  0.596  0.561
  Li871  Li1+  0.146  0.750  0.650  0.561
  Li4884  Li1+  0.896  0.096  0.228  0.561
  Li3655  Li1+  0.746  0.150  0.250  0.561
  Li3003  Li1+  0.550  0.550  0.596  0.562
  Li5912  Li1+  0.850  0.850  0.659  0.562
  Li2721  Li1+  0.550  0.350  0.359  0.562
  Li1517  Li1+  0.350  0.346  0.214  0.562
  Li7  Li1+  0.146  0.150  0.050  0.563
  Li2474  Li1+  0.450  0.046  0.242  0.563
  Li2561  Li1+  0.550  0.150  0.686  0.563
  Li788  Li1+  0.150  0.750  0.322  0.564
  Li2227  Li1+  0.300  0.900  0.336  0.565
  Li5570  Li1+  0.950  0.750  0.341  0.565
  Li987  Li1+  0.150  0.950  0.196  0.565
  Li2773  Li1+  0.500  0.300  0.573  0.566
  Li3905  Li1+  0.750  0.350  0.286  0.566
  Li5442  Li1+  0.850  0.450  0.696  0.566
  Li701  Li1+  0.150  0.546  0.814  0.566
  Li117  Li1+  0.150  0.146  0.432  0.566
  Li2503  Li1+  0.546  0.150  0.450  0.566
  Li3242  Li1+  0.450  0.646  0.442  0.566
  Li1190  Li1+  0.100  0.900  0.900  0.566
  Li750  Li1+  0.096  0.696  0.010  0.567
  Li2678  Li1+  0.500  0.300  0.100  0.567
  Li1927  Li1+  0.346  0.750  0.050  0.567
  Li2861  Li1+  0.550  0.346  0.814  0.567
  Li1037  Li1+  0.150  0.946  0.214  0.567
  Li3749  Li1+  0.650  0.050  0.768  0.567
  Li5932  Li1+  0.846  0.846  0.606  0.567
  Li4682  Li1+  0.650  0.846  0.442  0.568
  Li5263  Li1+  0.900  0.300  0.882  0.568
  Li4541  Li1+  0.750  0.746  0.814  0.568
  Li5927  Li1+  0.896  0.900  0.646  0.569
  Li5645  Li1+  0.950  0.746  0.414  0.570
  Li5345  Li1+  0.950  0.550  0.286  0.571
  Li1850  Li1+  0.250  0.446  0.642  0.571
  Li3566  Li1+  0.500  0.900  0.864  0.571
  Li4886  Li1+  0.900  0.100  0.300  0.571
  Li4478  Li1+  0.700  0.700  0.664  0.571
  Li4812  Li1+  0.850  0.050  0.150  0.571
  Li2744  Li1+  0.450  0.250  0.459  0.571
  Li3026  Li1+  0.550  0.550  0.741  0.571
  Li5586  Li1+  0.850  0.650  0.296  0.572
  Li223  Li1+  0.100  0.100  0.882  0.572
  Li4671  Li1+  0.700  0.900  0.591  0.572
  Li4177  Li1+  0.646  0.446  0.424  0.572
  Li1418  Li1+  0.250  0.046  0.842  0.572
  Li2381  Li1+  0.350  0.946  0.814  0.573
  Li5355  Li1+  0.950  0.550  0.396  0.573
  Li998  Li1+  0.100  0.900  0.100  0.573
  Li5839  Li1+  0.900  0.900  0.282  0.573
  Li1986  Li1+  0.250  0.650  0.296  0.574
  Li4530  Li1+  0.650  0.650  0.896  0.574
  Li5432  Li1+  0.850  0.450  0.659  0.574
  Li2464  Li1+  0.550  0.150  0.268  0.574
  Li4136  Li1+  0.650  0.450  0.259  0.576
  Li5535  Li1+  0.900  0.700  0.191  0.576
  Li3991  Li1+  0.746  0.350  0.650  0.576
  Li3391  Li1+  0.500  0.900  0.082  0.577
  Li3999  Li1+  0.700  0.300  0.791  0.577
  Li5729  Li1+  0.950  0.750  0.886  0.577
  Li2119  Li1+  0.346  0.750  0.850  0.577
  Li3607  Li1+  0.746  0.150  0.050  0.577
  Li5433  Li1+  0.850  0.450  0.678  0.578
  Li2660  Li1+  0.550  0.350  0.122  0.579
  Li3535  Li1+  0.500  0.900  0.682  0.580
  Li4684  Li1+  0.646  0.846  0.406  0.581
  Li5335  Li1+  0.946  0.550  0.250  0.581
  Li1269  Li1+  0.350  0.146  0.232  0.581
  Li5356  Li1+  0.846  0.446  0.206  0.581
  Li4862  Li1+  0.900  0.100  0.264  0.582
  Li5643  Li1+  0.950  0.750  0.596  0.582
  Li5207  Li1+  0.896  0.300  0.646  0.582
  Li798  Li1+  0.096  0.696  0.210  0.583
  Li3101  Li1+  0.550  0.546  0.814  0.583
  Li1259  Li1+  0.250  0.050  0.314  0.583
  Li4683  Li1+  0.750  0.950  0.596  0.583
  Li2527  Li1+  0.500  0.100  0.482  0.583
  Li2868  Li1+  0.496  0.296  0.828  0.584
  Li2747  Li1+  0.450  0.250  0.514  0.584
  Li1708  Li1+  0.246  0.446  0.006  0.584
  Li1502  Li1+  0.300  0.300  0.264  0.584
  Li2325  Li1+  0.350  0.946  0.632  0.585
  Li1064  Li1+  0.050  0.850  0.459  0.585
  Li3763  Li1+  0.700  0.100  0.736  0.586
  Li5105  Li1+  0.950  0.350  0.286  0.586
  Li4048  Li1+  0.750  0.350  0.868  0.586
  Li1761  Li1+  0.350  0.550  0.359  0.586
  Li1310  Li1+  0.300  0.100  0.464  0.586
  Li2430  Li1+  0.496  0.096  0.010  0.586
  Li4471  Li1+  0.746  0.750  0.650  0.587
  Li1454  Li1+  0.300  0.300  0.064  0.587
  Li1009  Li1+  0.046  0.846  0.224  0.587
  Li2903  Li1+  0.496  0.500  0.046  0.588
  Li3630  Li1+  0.696  0.096  0.010  0.588
  Li4084  Li1+  0.750  0.550  0.177  0.589
  Li2043  Li1+  0.350  0.750  0.596  0.590
  Li2558  Li1+  0.500  0.100  0.664  0.590
  Li5910  Li1+  0.846  0.846  0.787  0.590
  Li5126  Li1+  0.900  0.300  0.300  0.591
  Li440  Li1+  0.050  0.250  0.859  0.591
  Li561  Li1+  0.150  0.550  0.359  0.592
  Li4427  Li1+  0.650  0.650  0.514  0.592
  Li5723  Li1+  0.850  0.650  0.914  0.592
  Li3553  Li1+  0.446  0.846  0.824  0.592
  Li16  Li1+  0.150  0.150  0.068  0.592
  Li1280  Li1+  0.300  0.100  0.318  0.592
  Li342  Li1+  0.046  0.246  0.587  0.592
  Li3143  Li1+  0.496  0.700  0.046  0.593
  Li5718  Li1+  0.846  0.646  0.987  0.593
  Li3411  Li1+  0.450  0.850  0.332  0.593
  Li724  Li1+  0.150  0.750  0.177  0.594
  Li4612  Li1+  0.750  0.950  0.377  0.594
  Li924  Li1+  0.050  0.650  0.950  0.594
  Li799  Li1+  0.100  0.700  0.282  0.594
  Li4286  Li1+  0.700  0.500  0.864  0.595
  Li5816  Li1+  0.850  0.850  0.259  0.595
  Li3941  Li1+  0.650  0.250  0.568  0.596
  Li2453  Li1+  0.450  0.050  0.368  0.596
  Li3671  Li1+  0.696  0.100  0.246  0.596
  Li2606  Li1+  0.500  0.100  0.864  0.596
  Li1854  Li1+  0.296  0.496  0.610  0.597
  Li5732  Li1+  0.950  0.750  0.922  0.597
  Li4397  Li1+  0.750  0.746  0.214  0.597
  Li5761  Li1+  0.846  0.846  0.024  0.597
  Li2006  Li1+  0.300  0.700  0.300  0.597
  Li1991  Li1+  0.296  0.700  0.246  0.597
  Li3320  Li1+  0.450  0.650  0.859  0.597
  Li556  Li1+  0.046  0.446  0.206  0.597
  Li3468  Li1+  0.450  0.850  0.550  0.598
  Li1711  Li1+  0.300  0.500  0.082  0.598
  Li1893  Li1+  0.350  0.546  0.832  0.598
  Li3431  Li1+  0.496  0.900  0.246  0.599
  Li5630  Li1+  0.900  0.700  0.464  0.599
  Li4974  Li1+  0.896  0.096  0.610  0.599
  Li1277  Li1+  0.350  0.146  0.214  0.599
  Li4903  Li1+  0.946  0.150  0.450  0.599
  Li4092  Li1+  0.650  0.450  0.150  0.600
  Li2331  Li1+  0.350  0.950  0.796  0.600
  Li3446  Li1+  0.500  0.900  0.300  0.600
  Li4310  Li1+  0.700  0.500  0.900  0.600
  Li4109  Li1+  0.750  0.546  0.014  0.600
  Li3227  Li1+  0.450  0.650  0.514  0.601
  Li5451  Li1+  0.950  0.550  0.796  0.601
  Li746  Li1+  0.050  0.646  0.042  0.602
  Li1164  Li1+  0.050  0.850  0.950  0.602
  Li5435  Li1+  0.850  0.450  0.714  0.602
  Li5700  Li1+  0.896  0.696  0.628  0.602
  Li558  Li1+  0.096  0.496  0.210  0.603
  Li5837  Li1+  0.950  0.946  0.214  0.603
  Li3031  Li1+  0.546  0.550  0.650  0.603
  Li3047  Li1+  0.496  0.500  0.646  0.603
  Li3055  Li1+  0.500  0.500  0.682  0.603
  Li4245  Li1+  0.750  0.546  0.632  0.603
  Li4426  Li1+  0.750  0.750  0.504  0.604
  Li4788  Li1+  0.696  0.896  0.828  0.604
  Li5599  Li1+  0.900  0.700  0.282  0.604
  Li1989  Li1+  0.350  0.746  0.232  0.604
  Li844  Li1+  0.046  0.646  0.406  0.605
  Li3854  Li1+  0.700  0.300  0.064  0.605
  Li885  Li1+  0.150  0.746  0.632  0.605
  Li1658  Li1+  0.250  0.246  0.842  0.606
  Li3464  Li1+  0.450  0.850  0.459  0.606
  Li5582  Li1+  0.900  0.700  0.264  0.606
  Li2820  Li1+  0.496  0.296  0.628  0.607
  Li2270  Li1+  0.300  0.900  0.464  0.607
  Li318  Li1+  0.096  0.296  0.210  0.608
  Li2841  Li1+  0.450  0.250  0.878  0.608
  Li3770  Li1+  0.650  0.046  0.642  0.609
  Li967  Li1+  0.146  0.950  0.050  0.609
  Li1900  Li1+  0.246  0.446  0.806  0.609
  Li4135  Li1+  0.746  0.550  0.250  0.610
  Li4867  Li1+  0.900  0.100  0.336  0.610
  Li3669  Li1+  0.750  0.146  0.232  0.610
  Li5822  Li1+  0.900  0.900  0.264  0.610
  Li935  Li1+  0.096  0.700  0.846  0.610
  Li4274  Li1+  0.750  0.550  0.941  0.610
  Li1375  Li1+  0.300  0.100  0.682  0.611
  Li2567  Li1+  0.496  0.100  0.646  0.611
  Li3948  Li1+  0.650  0.250  0.550  0.611
  Li4424  Li1+  0.650  0.650  0.459  0.611
  Li2191  Li1+  0.300  0.900  0.082  0.612
  Li2090  Li1+  0.250  0.646  0.642  0.612
  Li2886  Li1+  0.446  0.446  0.187  0.612
  Li2554  Li1+  0.550  0.150  0.704  0.612
  Li1735  Li1+  0.346  0.550  0.250  0.612
  Li4058  Li1+  0.650  0.246  0.842  0.612
  Li4301  Li1+  0.750  0.546  0.814  0.612
  Li4911  Li1+  0.900  0.100  0.591  0.613
  Li5303  Li1+  0.896  0.500  0.046  0.613
  Li516  Li1+  0.096  0.496  0.028  0.613
  Li3703  Li1+  0.746  0.150  0.450  0.613
  Li5931  Li1+  0.950  0.950  0.796  0.614
  Li1120  Li1+  0.150  0.950  0.668  0.614
  Li4204  Li1+  0.646  0.446  0.406  0.614
  Li319  Li1+  0.100  0.300  0.282  0.614
  Li5846  Li1+  0.900  0.900  0.300  0.615
  Li4321  Li1+  0.646  0.646  0.024  0.615
  Li3197  Li1+  0.550  0.746  0.214  0.615
  Li1851  Li1+  0.350  0.550  0.796  0.615
  Li647  Li1+  0.096  0.500  0.646  0.616
  Li4670  Li1+  0.700  0.900  0.464  0.616
  Li1127  Li1+  0.096  0.900  0.646  0.616
  Li1879  Li1+  0.346  0.550  0.850  0.617
  Li643  Li1+  0.100  0.500  0.736  0.617
  Li386  Li1+  0.150  0.350  0.741  0.617
  Li3005  Li1+  0.550  0.546  0.414  0.617
  Li2532  Li1+  0.496  0.096  0.428  0.618
  Li555  Li1+  0.150  0.550  0.396  0.618
  Li2421  Li1+  0.550  0.146  0.032  0.618
  Li3230  Li1+  0.500  0.700  0.464  0.618
  Li5694  Li1+  0.896  0.696  0.610  0.618
  Li200  Li1+  0.050  0.050  0.859  0.618
  Li5120  Li1+  0.900  0.300  0.318  0.618
  Li2187  Li1+  0.350  0.950  0.196  0.619
  Li5692  Li1+  0.846  0.646  0.606  0.619
  Li5558  Li1+  0.900  0.700  0.100  0.620
  Li876  Li1+  0.050  0.650  0.750  0.620
  Li518  Li1+  0.100  0.500  0.100  0.621
  Li530  Li1+  0.150  0.550  0.341  0.621
  Li1415  Li1+  0.296  0.100  0.846  0.621
  Li4434  Li1+  0.650  0.650  0.496  0.621
  Li297  Li1+  0.050  0.250  0.278  0.621
  Li271  Li1+  0.100  0.300  0.082  0.622
  Li1987  Li1+  0.300  0.700  0.336  0.622
  Li2072  Li1+  0.250  0.650  0.659  0.622
  Li51  Li1+  0.050  0.050  0.332  0.623
  Li2690  Li1+  0.550  0.350  0.341  0.623
  Li1111  Li1+  0.146  0.950  0.650  0.623
  Li2069  Li1+  0.250  0.650  0.768  0.623
  Li3926  Li1+  0.700  0.300  0.300  0.624
  Li1710  Li1+  0.296  0.496  0.010  0.624
  Li5000  Li1+  0.850  0.050  0.859  0.624
  Li1181  Li1+  0.150  0.946  0.814  0.624
  Li3247  Li1+  0.500  0.700  0.482  0.624
  Li4596  Li1+  0.696  0.896  0.028  0.625
  Li2702  Li1+  0.500  0.300  0.264  0.625
  Li2548  Li1+  0.550  0.150  0.777  0.625
  Li3800  Li1+  0.650  0.050  0.859  0.625
  Li1544  Li1+  0.250  0.250  0.459  0.625
  Li1016  Li1+  0.050  0.850  0.259  0.626
  Li2934  Li1+  0.446  0.446  0.387  0.626
  Li2340  Li1+  0.296  0.896  0.628  0.626
  Li5715  Li1+  0.850  0.650  0.932  0.626
  Li4081  Li1+  0.646  0.446  0.024  0.626
  Li4398  Li1+  0.696  0.696  0.210  0.627
  Li2613  Li1+  0.550  0.146  0.832  0.627
  Li3467  Li1+  0.450  0.850  0.514  0.627
  Li5731  Li1+  0.900  0.700  0.936  0.628
  Li1393  Li1+  0.246  0.046  0.824  0.628
  Li3272  Li1+  0.450  0.650  0.659  0.628
  Li317  Li1+  0.150  0.346  0.214  0.628
  Li894  Li1+  0.096  0.696  0.610  0.629
  Li5172  Li1+  0.896  0.296  0.428  0.629
  Li590  Li1+  0.100  0.500  0.464  0.629
  Li4945  Li1+  0.846  0.046  0.624  0.629
  Li3103  Li1+  0.500  0.500  0.882  0.630
  Li14  Li1+  0.100  0.100  0.064  0.630
  Li1948  Li1+  0.246  0.646  0.006  0.630
  Li2949  Li1+  0.550  0.546  0.232  0.631
  Li2327  Li1+  0.296  0.900  0.646  0.631
  Li3002  Li1+  0.450  0.446  0.442  0.632
  Li990  Li1+  0.096  0.896  0.010  0.632
  Li1015  Li1+  0.146  0.950  0.250  0.632
  Li4613  Li1+  0.650  0.850  0.368  0.633
  Li1457  Li1+  0.350  0.350  0.086  0.633
  Li5165  Li1+  0.950  0.346  0.414  0.633
  Li4830  Li1+  0.896  0.096  0.010  0.634
  Li726  Li1+  0.046  0.646  0.187  0.634
  Li1799  Li1+  0.296  0.500  0.446  0.634
  Li4116  Li1+  0.696  0.496  0.028  0.635
  Li4708  Li1+  0.750  0.950  0.777  0.635
  Li1655  Li1+  0.296  0.300  0.846  0.635
  Li1973  Li1+  0.250  0.650  0.368  0.636
  Li4769  Li1+  0.750  0.950  0.886  0.636
  Li3284  Li1+  0.550  0.750  0.722  0.636
  Li4727  Li1+  0.696  0.900  0.646  0.636
  Li1406  Li1+  0.300  0.100  0.864  0.636
  Li3412  Li1+  0.550  0.950  0.377  0.636
  Li5536  Li1+  0.950  0.750  0.068  0.636
  Li3824  Li1+  0.700  0.100  0.918  0.637
  Li2183  Li1+  0.296  0.900  0.046  0.637
  Li1020  Li1+  0.050  0.850  0.350  0.637
  Li2955  Li1+  0.550  0.550  0.396  0.638
  Li4641  Li1+  0.750  0.950  0.359  0.638
  Li738  Li1+  0.050  0.650  0.096  0.638
  Li3422  Li1+  0.500  0.900  0.264  0.638
  Li754  Li1+  0.100  0.700  0.154  0.639
  Li251  Li1+  0.050  0.250  0.114  0.639
  Li3922  Li1+  0.700  0.300  0.354  0.640
  Li1605  Li1+  0.350  0.346  0.632  0.640
  Li3198  Li1+  0.496  0.696  0.210  0.640
  Li4589  Li1+  0.750  0.946  0.014  0.640
  Li5300  Li1+  0.950  0.550  0.122  0.641
  Li1976  Li1+  0.250  0.650  0.259  0.641
  Li5358  Li1+  0.896  0.496  0.210  0.641
  Li1898  Li1+  0.250  0.446  0.842  0.641
  Li3444  Li1+  0.496  0.896  0.228  0.642
  Li3662  Li1+  0.700  0.100  0.264  0.642
  Li2815  Li1+  0.500  0.300  0.682  0.642
  Li4828  Li1+  0.846  0.046  0.006  0.643
  Li1661  Li1+  0.350  0.346  0.814  0.643
  Li4385  Li1+  0.750  0.750  0.286  0.643
  Li3636  Li1+  0.696  0.096  0.028  0.643
  Li1377  Li1+  0.350  0.150  0.759  0.644
  Li3867  Li1+  0.750  0.350  0.196  0.644
  Li4762  Li1+  0.750  0.950  0.904  0.644
  Li2358  Li1+  0.246  0.846  0.987  0.644
  Li3281  Li1+  0.550  0.750  0.686  0.644
  Li1039  Li1+  0.100  0.900  0.282  0.644
  Li1360  Li1+  0.350  0.150  0.668  0.644
  Li494  Li1+  0.100  0.500  0.064  0.644
  Li2725  Li1+  0.500  0.300  0.373  0.645
  Li5790  Li1+  0.896  0.896  0.010  0.645
  Li2004  Li1+  0.296  0.696  0.228  0.645
  Li5106  Li1+  0.850  0.250  0.296  0.645
  Li3248  Li1+  0.500  0.700  0.518  0.645
  Li3506  Li1+  0.550  0.950  0.741  0.646
  Li3697  Li1+  0.646  0.046  0.424  0.646
  Li5786  Li1+  0.850  0.846  0.042  0.646
  Li173  Li1+  0.150  0.146  0.614  0.646
  Li1303  Li1+  0.346  0.150  0.450  0.647
  Li3426  Li1+  0.450  0.850  0.296  0.647
  Li1185  Li1+  0.150  0.950  0.959  0.648
  Li1653  Li1+  0.350  0.346  0.832  0.648
  Li1448  Li1+  0.250  0.250  0.059  0.648
  Li4432  Li1+  0.750  0.750  0.468  0.648
  Li299  Li1+  0.050  0.250  0.314  0.648
  Li1499  Li1+  0.250  0.250  0.314  0.648
  Li3492  Li1+  0.496  0.896  0.428  0.649
  Li2360  Li1+  0.250  0.850  0.859  0.649
  Li2307  Li1+  0.250  0.850  0.732  0.649
  Li770  Li1+  0.150  0.750  0.341  0.649
  Li278  Li1+  0.100  0.300  0.100  0.650
  Li305  Li1+  0.150  0.350  0.286  0.650
  Li4454  Li1+  0.700  0.700  0.500  0.650
  Li1941  Li1+  0.350  0.746  0.032  0.651
  Li2053  Li1+  0.300  0.700  0.573  0.651
  Li5077  Li1+  0.900  0.300  0.173  0.651
  Li3141  Li1+  0.550  0.746  0.032  0.651
  Li248  Li1+  0.050  0.250  0.059  0.651
  Li1478  Li1+  0.300  0.300  0.100  0.652
  Li5827  Li1+  0.900  0.900  0.336  0.652
  Li5695  Li1+  0.900  0.700  0.682  0.653
  Li3396  Li1+  0.496  0.896  0.028  0.653
  Li1345  Li1+  0.246  0.046  0.624  0.654
  Li1329  Li1+  0.350  0.150  0.559  0.654
  Li2853  Li1+  0.550  0.346  0.832  0.654
  Li1607  Li1+  0.296  0.300  0.646  0.654
  Li4622  Li1+  0.700  0.900  0.264  0.654
  Li2759  Li1+  0.496  0.300  0.446  0.654
  Li3175  Li1+  0.546  0.750  0.250  0.655
  Li3921  Li1+  0.750  0.350  0.359  0.655
  Li5018  Li1+  0.850  0.046  0.842  0.655
  Li2369  Li1+  0.350  0.950  0.886  0.656
  Li3044  Li1+  0.550  0.550  0.722  0.656
  Li3343  Li1+  0.500  0.700  0.882  0.656
  Li3409  Li1+  0.446  0.846  0.224  0.656
  Li5530  Li1+  0.950  0.750  0.104  0.657
  Li2240  Li1+  0.300  0.900  0.318  0.657
  Li2888  Li1+  0.450  0.450  0.059  0.657
  Li4043  Li1+  0.650  0.250  0.914  0.657
  Li2591  Li1+  0.529  0.008  0.794  0.658
  Li2100  Li1+  0.296  0.696  0.628  0.658
  Li2765  Li1+  0.550  0.346  0.414  0.658
  Li5430  Li1+  0.846  0.446  0.787  0.659
  Li5262  Li1+  0.896  0.296  0.810  0.659
  Li773  Li1+  0.050  0.650  0.368  0.660
  Li797  Li1+  0.150  0.746  0.214  0.661
  Li2428  Li1+  0.446  0.046  0.006  0.661
  Li145  Li1+  0.046  0.046  0.624  0.662
  Li4468  Li1+  0.750  0.750  0.777  0.662
  Li2584  Li1+  0.467  0.067  0.636  0.662
  Li1922  Li1+  0.350  0.750  0.141  0.663
  Li4275  Li1+  0.650  0.450  0.932  0.663
  Li5969  Li1+  0.950  0.950  0.886  0.663
  Li5346  Li1+  0.850  0.450  0.296  0.664
  Li1709  Li1+  0.350  0.546  0.014  0.664
  Li5097  Li1+  0.850  0.250  0.278  0.665
  Li5189  Li1+  0.850  0.250  0.768  0.665
  Li272  Li1+  0.100  0.300  0.118  0.665
  Li3582  Li1+  0.496  0.896  0.810  0.665
  Li1797  Li1+  0.350  0.546  0.432  0.665
  Li2711  Li1+  0.496  0.300  0.246  0.665
  Li3439  Li1+  0.500  0.900  0.282  0.665
  Li2843  Li1+  0.450  0.250  0.914  0.666
  Li4278  Li1+  0.646  0.446  0.987  0.666
  Li830  Li1+  0.100  0.700  0.464  0.666
  Li2628  Li1+  0.496  0.096  0.828  0.666
  Li1649  Li1+  0.350  0.350  0.886  0.667
  Li79  Li1+  0.100  0.100  0.282  0.667
  Li1084  Li1+  0.046  0.846  0.406  0.667
  Li4535  Li1+  0.696  0.700  0.846  0.667
  Li4645  Li1+  0.700  0.900  0.373  0.668
  Li1036  Li1+  0.046  0.846  0.206  0.668
  Li30  Li1+  0.096  0.096  0.010  0.668
  Li5934  Li1+  0.896  0.896  0.610  0.668
  Li29  Li1+  0.150  0.146  0.014  0.668
  Li4849  Li1+  0.846  0.046  0.224  0.668
  Li5405  Li1+  0.950  0.546  0.414  0.669
  Li2763  Li1+  0.550  0.350  0.596  0.669
  Li795  Li1+  0.150  0.750  0.396  0.669
  Li76  Li1+  0.046  0.046  0.206  0.670
  Li2310  Li1+  0.246  0.846  0.787  0.670
  Li302  Li1+  0.100  0.300  0.264  0.671
  Li1565  Li1+  0.350  0.346  0.414  0.671
  Li5213  Li1+  0.950  0.346  0.614  0.671
  Li2039  Li1+  0.296  0.700  0.446  0.671
  Li4709  Li1+  0.650  0.850  0.768  0.671
  Li5473  Li1+  0.846  0.446  0.824  0.671
  Li5679  Li1+  0.900  0.700  0.791  0.671
  Li5857  Li1+  0.846  0.846  0.424  0.671
  Li977  Li1+  0.150  0.950  0.086  0.671
  Li4322  Li1+  0.750  0.750  0.141  0.671
  Li4185  Li1+  0.650  0.450  0.478  0.672
  Li1696  Li1+  0.350  0.550  0.068  0.672
  Li3902  Li1+  0.700  0.300  0.264  0.673
  Li3911  Li1+  0.696  0.300  0.246  0.674
  Li5330  Li1+  0.950  0.550  0.341  0.674
  Li3674  Li1+  0.650  0.046  0.242  0.674
  Li172  Li1+  0.046  0.046  0.606  0.674
  Li353  Li1+  0.150  0.350  0.486  0.674
  Li4768  Li1+  0.750  0.950  0.868  0.675
  Li4781  Li1+  0.750  0.946  0.814  0.675
  Li2792  Li1+  0.450  0.250  0.659  0.675
  Li2209  Li1+  0.246  0.846  0.224  0.675
  Li193  Li1+  0.046  0.046  0.824  0.675
  Li1853  Li1+  0.350  0.546  0.614  0.676
  Li2800  Li1+  0.550  0.350  0.668  0.676
  Li2188  Li1+  0.246  0.846  0.006  0.676
  Li2667  Li1+  0.550  0.350  0.196  0.676
  Li3149  Li1+  0.550  0.746  0.014  0.676
  Li5495  Li1+  0.896  0.500  0.846  0.676
  Li2332  Li1+  0.246  0.846  0.606  0.677
  Li1669  Li1+  0.300  0.300  0.973  0.677
  Li3378  Li1+  0.450  0.850  0.096  0.678
  Li5499  Li1+  0.950  0.550  0.996  0.678
  Li554  Li1+  0.050  0.446  0.242  0.678
  Li5102  Li1+  0.900  0.300  0.264  0.678
  Li1216  Li1+  0.350  0.150  0.068  0.678
  Li657  Li1+  0.150  0.550  0.759  0.678
  Li3909  Li1+  0.750  0.346  0.232  0.679
  Li3171  Li1+  0.450  0.650  0.332  0.679
  Li1755  Li1+  0.350  0.550  0.396  0.680
  Li5915  Li1+  0.850  0.850  0.714  0.681
  Li3025  Li1+  0.446  0.446  0.624  0.681
  Li931  Li1+  0.100  0.700  0.936  0.682
  Li3705  Li1+  0.650  0.050  0.478  0.682
  Li777  Li1+  0.050  0.650  0.278  0.682
  Li4520  Li1+  0.650  0.650  0.859  0.682
  Li2646  Li1+  0.446  0.246  0.187  0.682
  Li3429  Li1+  0.550  0.946  0.232  0.682
  Li5744  Li1+  0.900  0.700  0.918  0.682
  Li3852  Li1+  0.650  0.250  0.150  0.683
  Li1698  Li1+  0.250  0.450  0.096  0.683
  Li5008  Li1+  0.950  0.150  0.868  0.683
  Li2276  Li1+  0.350  0.950  0.522  0.684
  Li5578  Li1+  0.950  0.750  0.304  0.684
  Li628  Li1+  0.150  0.550  0.777  0.684
  Li2766  Li1+  0.496  0.296  0.410  0.684
  Li5789  Li1+  0.950  0.946  0.014  0.685
  Li5479  Li1+  0.946  0.550  0.850  0.685
  Li3964  Li1+  0.646  0.246  0.406  0.685
  Li5962  Li1+  0.950  0.950  0.904  0.686
  Li1554  Li1+  0.250  0.250  0.496  0.686
  Li2161  Li1+  0.246  0.846  0.024  0.686
  Li1590  Li1+  0.246  0.246  0.787  0.687
  Li5687  Li1+  0.896  0.700  0.646  0.687
  Li796  Li1+  0.046  0.646  0.206  0.687
  Li2238  Li1+  0.296  0.896  0.210  0.687
  Li4770  Li1+  0.650  0.850  0.896  0.688
  Li3195  Li1+  0.550  0.750  0.396  0.688
  Li3460  Li1+  0.550  0.950  0.577  0.688
  Li3425  Li1+  0.550  0.950  0.286  0.689
  Li5109  Li1+  0.950  0.346  0.232  0.689
  Li5966  Li1+  0.900  0.900  0.864  0.689
  Li510  Li1+  0.096  0.496  0.010  0.690
  Li535  Li1+  0.146  0.550  0.250  0.690
  Li1352  Li1+  0.250  0.050  0.659  0.690
  Li4858  Li1+  0.950  0.150  0.304  0.691
  Li2283  Li1+  0.350  0.950  0.596  0.691
  Li3278  Li1+  0.500  0.700  0.664  0.691
  Li1583  Li1+  0.329  0.208  0.594  0.691
  Li2388  Li1+  0.296  0.896  0.828  0.691
  Li3513  Li1+  0.450  0.850  0.678  0.691
  Li3985  Li1+  0.646  0.246  0.624  0.691
  Li5892  Li1+  0.896  0.896  0.428  0.692
  Li2129  Li1+  0.350  0.750  0.886  0.692
  Li2525  Li1+  0.550  0.146  0.414  0.693
  Li215  Li1+  0.096  0.100  0.846  0.693
  Li5905  Li1+  0.846  0.846  0.624  0.694
  Li4487  Li1+  0.696  0.700  0.646  0.694
  Li2942  Li1+  0.500  0.500  0.264  0.695
  Li4539  Li1+  0.750  0.750  0.996  0.695
  Li817  Li1+  0.046  0.646  0.424  0.696
  Li1286  Li1+  0.300  0.100  0.300  0.696
  Li5870  Li1+  0.900  0.900  0.464  0.696
  Li5043  Li1+  0.850  0.250  0.132  0.696
  Li2838  Li1+  0.446  0.246  0.987  0.696
  Li5361  Li1+  0.950  0.550  0.359  0.696
  Li4206  Li1+  0.696  0.496  0.410  0.696
  Li447  Li1+  0.100  0.300  0.991  0.696
  Li5498  Li1+  0.850  0.446  0.842  0.697
  Li3890  Li1+  0.750  0.350  0.341  0.697
  Li1444  Li1+  0.350  0.350  0.177  0.697
  Li5720  Li1+  0.850  0.650  0.859  0.697
  Li968  Li1+  0.050  0.850  0.059  0.697
  Li5191  Li1+  0.946  0.350  0.650  0.697
  Li4860  Li1+  0.850  0.050  0.350  0.697
  Li2414  Li1+  0.500  0.100  0.064  0.697
  Li1790  Li1+  0.300  0.500  0.464  0.697
  Li5478  Li1+  0.846  0.446  0.987  0.697
  Li2065  Li1+  0.246  0.646  0.624  0.698
  Li4049  Li1+  0.750  0.350  0.886  0.698
  Li3027  Li1+  0.450  0.450  0.732  0.698
  Li498  Li1+  0.050  0.450  0.096  0.698
  Li4241  Li1+  0.750  0.550  0.686  0.699
  Li436  Li1+  0.150  0.350  0.977  0.699
  Li583  Li1+  0.146  0.550  0.450  0.699
  Li887  Li1+  0.096  0.700  0.646  0.699
  Li4917  Li1+  0.950  0.146  0.432  0.700
  Li1691  Li1+  0.250  0.450  0.114  0.700
  Li1509  Li1+  0.350  0.346  0.232  0.700
  Li4062  Li1+  0.696  0.296  0.810  0.701
  Li5406  Li1+  0.896  0.496  0.410  0.701
  Li2654  Li1+  0.500  0.300  0.064  0.702
  Li2094  Li1+  0.296  0.696  0.610  0.702
  Li5885  Li1+  0.950  0.946  0.414  0.702
  Li4229  Li1+  0.650  0.450  0.768  0.702
  Li453  Li1+  0.150  0.346  0.832  0.702
  Li5070  Li1+  0.896  0.296  0.010  0.702
  Li5963  Li1+  0.850  0.850  0.914  0.703
  Li5241  Li1+  0.850  0.250  0.878  0.703
  Li3045  Li1+  0.550  0.546  0.632  0.703
  Li110  Li1+  0.100  0.100  0.464  0.704
  Li31  Li1+  0.100  0.100  0.082  0.704
  Li786  Li1+  0.050  0.650  0.296  0.704
  Li2169  Li1+  0.250  0.850  0.078  0.704
  Li5250  Li1+  0.850  0.250  0.896  0.704
  Li389  Li1+  0.050  0.250  0.768  0.704
  Li1449  Li1+  0.250  0.250  0.078  0.705
  Li1746  Li1+  0.250  0.450  0.296  0.705
  Li1737  Li1+  0.250  0.450  0.278  0.705
  Li1718  Li1+  0.300  0.500  0.100  0.706
  Li3773  Li1+  0.750  0.146  0.614  0.706
  Li1641  Li1+  0.250  0.250  0.878  0.706
  Li4673  Li1+  0.750  0.950  0.486  0.707
  Li3206  Li1+  0.500  0.700  0.300  0.707
  Li5404  Li1+  0.846  0.446  0.406  0.707
  Li3649  Li1+  0.646  0.046  0.224  0.708
  Li3041  Li1+  0.550  0.550  0.686  0.708
  Li3727  Li1+  0.700  0.100  0.482  0.708
  Li1229  Li1+  0.350  0.146  0.014  0.709
  Li2093  Li1+  0.350  0.746  0.614  0.709
  Li102  Li1+  0.046  0.046  0.587  0.709
  Li1982  Li1+  0.300  0.700  0.264  0.709
  Li1467  Li1+  0.350  0.350  0.196  0.709
  Li2266  Li1+  0.350  0.950  0.504  0.710
  Li5450  Li1+  0.850  0.446  0.642  0.710
  Li2940  Li1+  0.450  0.450  0.350  0.710
  Li3196  Li1+  0.446  0.646  0.206  0.710
  Li4804  Li1+  0.950  0.150  0.177  0.710
  Li4755  Li1+  0.650  0.850  0.932  0.710
  Li4053  Li1+  0.750  0.346  0.832  0.711
  Li1514  Li1+  0.250  0.246  0.242  0.711
  Li4373  Li1+  0.650  0.650  0.368  0.711
  Li1046  Li1+  0.100  0.900  0.300  0.712
  Li5810  Li1+  0.950  0.950  0.341  0.712
  Li388  Li1+  0.150  0.350  0.777  0.712
  Li3507  Li1+  0.450  0.850  0.732  0.712
  Li4956  Li1+  0.850  0.050  0.750  0.712
  Li4693  Li1+  0.700  0.900  0.573  0.712
  Li1162  Li1+  0.150  0.950  0.904  0.713
  Li65  Li1+  0.150  0.150  0.286  0.713
  Li213  Li1+  0.150  0.146  0.832  0.713
  Li1019  Li1+  0.050  0.850  0.314  0.713
  Li3236  Li1+  0.550  0.750  0.522  0.714
  Li59  Li1+  0.050  0.050  0.314  0.714
  Li3173  Li1+  0.450  0.650  0.368  0.714
  Li2707  Li1+  0.500  0.300  0.336  0.715
  Li3803  Li1+  0.650  0.050  0.914  0.715
  Li5975  Li1+  0.896  0.900  0.846  0.715
  Li411  Li1+  0.150  0.350  0.796  0.715
  Li650  Li1+  0.050  0.446  0.642  0.716
  Li5556  Li1+  0.896  0.696  0.028  0.716
  Li5666  Li1+  0.950  0.750  0.741  0.716
  Li1921  Li1+  0.246  0.646  0.024  0.716
  Li5012  Li1+  0.950  0.150  0.922  0.716
  Li3650  Li1+  0.750  0.150  0.341  0.717
  Li267  Li1+  0.150  0.350  0.196  0.717
  Li4291  Li1+  0.700  0.500  0.936  0.717
  Li3127  Li1+  0.546  0.750  0.050  0.718
  Li2858  Li1+  0.450  0.246  0.842  0.718
  Li772  Li1+  0.150  0.750  0.377  0.718
  Li4814  Li1+  0.900  0.100  0.064  0.718
  Li38  Li1+  0.100  0.100  0.100  0.718
  Li491  Li1+  0.050  0.450  0.114  0.718
  Li5117  Li1+  0.950  0.346  0.214  0.719
  Li5100  Li1+  0.850  0.250  0.350  0.719
  Li631  Li1+  0.146  0.550  0.650  0.720
  Li5623  Li1+  0.946  0.750  0.450  0.720
  Li1537  Li1+  0.246  0.246  0.424  0.720
  Li1138  Li1+  0.100  0.900  0.754  0.721
  Li4064  Li1+  0.700  0.300  0.918  0.721
  Li868  Li1+  0.150  0.750  0.777  0.721
  Li2982  Li1+  0.446  0.446  0.587  0.722
  Li4854  Li1+  0.846  0.046  0.387  0.722
  Li71  Li1+  0.096  0.100  0.246  0.722
  Li3222  Li1+  0.446  0.646  0.587  0.722
  Li1875  Li1+  0.250  0.450  0.932  0.722
  Li5332  Li1+  0.950  0.550  0.377  0.723
  Li769  Li1+  0.046  0.646  0.224  0.723
  Li1591  Li1+  0.346  0.350  0.650  0.723
  Li3061  Li1+  0.500  0.500  0.773  0.723
  Li5770  Li1+  0.950  0.950  0.104  0.723
  Li4583  Li1+  0.696  0.900  0.046  0.723
  Li3333  Li1+  0.550  0.746  0.832  0.724
  Li3089  Li1+  0.550  0.550  0.886  0.725
  Li5359  Li1+  0.900  0.500  0.282  0.725
  Li5667  Li1+  0.850  0.650  0.732  0.725
  Li6  Li1+  0.046  0.046  0.187  0.725
  Li4154  Li1+  0.650  0.446  0.242  0.725
  Li5480  Li1+  0.850  0.450  0.859  0.726
  Li3659  Li1+  0.650  0.050  0.314  0.726
  Li5288  Li1+  0.850  0.450  0.059  0.728
  Li1159  Li1+  0.146  0.950  0.850  0.728
  Li2452  Li1+  0.550  0.150  0.377  0.728
  Li5488  Li1+  0.950  0.550  0.868  0.728
  Li4868  Li1+  0.950  0.150  0.322  0.728
  Li3329  Li1+  0.550  0.750  0.886  0.728
  Li4437  Li1+  0.750  0.746  0.432  0.728
  Li1937  Li1+  0.350  0.750  0.086  0.729
  Li4059  Li1+  0.750  0.350  0.996  0.729
  Li487  Li1+  0.146  0.550  0.050  0.729
  Li1543  Li1+  0.346  0.350  0.450  0.729
  Li1873  Li1+  0.246  0.446  0.824  0.730
  Li3828  Li1+  0.696  0.096  0.828  0.731
  Li1901  Li1+  0.350  0.546  0.814  0.731
  Li727  Li1+  0.146  0.750  0.050  0.731
  Li5440  Li1+  0.950  0.550  0.668  0.731
  Li5388  Li1+  0.850  0.450  0.550  0.731
  Li1706  Li1+  0.250  0.446  0.042  0.732
  Li920  Li1+  0.050  0.650  0.859  0.732
  Li4674  Li1+  0.650  0.850  0.496  0.732
  Li1180  Li1+  0.046  0.846  0.806  0.733
  Li1926  Li1+  0.246  0.646  0.187  0.733
  Li4348  Li1+  0.646  0.646  0.006  0.733
  Li983  Li1+  0.096  0.900  0.046  0.733
  Li5453  Li1+  0.950  0.546  0.614  0.734
  Li2745  Li1+  0.450  0.250  0.478  0.734
  Li3653  Li1+  0.650  0.050  0.368  0.734
  Li5119  Li1+  0.900  0.300  0.282  0.734
  Li2600  Li1+  0.450  0.050  0.859  0.734
  Li1886  Li1+  0.300  0.500  0.864  0.734
  Li5246  Li1+  0.900  0.300  0.864  0.735
  Li4178  Li1+  0.750  0.550  0.541  0.735
  Li2113  Li1+  0.246  0.646  0.824  0.735
  Li4085  Li1+  0.650  0.450  0.168  0.735
  Li4718  Li1+  0.700  0.900  0.664  0.736
  Li5842  Li1+  0.900  0.900  0.354  0.737
  Li1998  Li1+  0.296  0.696  0.210  0.737
  Li269  Li1+  0.150  0.346  0.014  0.737
  Li4733  Li1+  0.750  0.946  0.614  0.737
  Li2812  Li1+  0.446  0.246  0.606  0.737
  Li2510  Li1+  0.500  0.100  0.464  0.737
  Li5937  Li1+  0.950  0.950  0.759  0.737
  Li978  Li1+  0.050  0.850  0.096  0.738
  Li892  Li1+  0.046  0.646  0.606  0.738
  Li2477  Li1+  0.550  0.146  0.214  0.738
  Li2994  Li1+  0.450  0.450  0.496  0.739
  Li3225  Li1+  0.450  0.650  0.478  0.739
  Li1744  Li1+  0.350  0.550  0.268  0.739
  Li3224  Li1+  0.450  0.650  0.459  0.739
  Li3963  Li1+  0.750  0.350  0.596  0.739
  Li1279  Li1+  0.300  0.100  0.282  0.739
  Li2426  Li1+  0.450  0.046  0.042  0.740
  Li5649  Li1+  0.950  0.750  0.559  0.740
  Li2894  Li1+  0.500  0.500  0.064  0.740
  Li3756  Li1+  0.650  0.050  0.750  0.740
  Li4013  Li1+  0.750  0.346  0.614  0.740
  Li5691  Li1+  0.950  0.750  0.796  0.740
  Li837  Li1+  0.150  0.746  0.432  0.740
  Li2810  Li1+  0.450  0.246  0.642  0.740
  Li443  Li1+  0.050  0.250  0.914  0.740
  Li5831  Li1+  0.896  0.900  0.246  0.741
  Li3904  Li1+  0.750  0.350  0.268  0.741
  Li3891  Li1+  0.650  0.250  0.332  0.741
  Li2081  Li1+  0.350  0.750  0.686  0.741
  Li3185  Li1+  0.550  0.750  0.286  0.741
  Li5426  Li1+  0.950  0.550  0.741  0.741
  Li2261  Li1+  0.250  0.850  0.568  0.742
  Li3176  Li1+  0.450  0.650  0.259  0.742
  Li2715  Li1+  0.550  0.350  0.396  0.742
  Li5349  Li1+  0.950  0.546  0.232  0.742
  Li5835  Li1+  0.950  0.950  0.396  0.742
  Li3040  Li1+  0.550  0.550  0.668  0.742
  Li2671  Li1+  0.500  0.300  0.082  0.742
  Li2703  Li1+  0.500  0.300  0.391  0.743
  Li3702  Li1+  0.646  0.046  0.587  0.743
  Li1740  Li1+  0.250  0.450  0.350  0.743
  Li198  Li1+  0.046  0.046  0.987  0.743
  Li1161  Li1+  0.050  0.850  0.878  0.743
  Li3182  Li1+  0.500  0.700  0.264  0.743
  Li3700  Li1+  0.750  0.150  0.577  0.744
  Li1024  Li1+  0.150  0.950  0.268  0.745
  Li1847  Li1+  0.296  0.500  0.646  0.745
  Li1466  Li1+  0.250  0.246  0.042  0.745
  Li26  Li1+  0.050  0.046  0.042  0.745
  Li585  Li1+  0.050  0.450  0.478  0.745
  Li1471  Li1+  0.300  0.300  0.082  0.746
  Li1924  Li1+  0.350  0.750  0.177  0.746
  Li64  Li1+  0.150  0.150  0.268  0.746
  Li4954  Li1+  0.950  0.150  0.704  0.746
  Li3376  Li1+  0.550  0.950  0.068  0.746
  Li5145  Li1+  0.850  0.250  0.478  0.747
  Li1788  Li1+  0.250  0.450  0.550  0.747
  Li203  Li1+  0.050  0.050  0.914  0.747
  Li2353  Li1+  0.246  0.846  0.824  0.747
  Li1496  Li1+  0.250  0.250  0.259  0.747
  Li3390  Li1+  0.496  0.896  0.010  0.747
  Li4611  Li1+  0.650  0.850  0.332  0.747
  Li2743  Li1+  0.546  0.350  0.450  0.748
  Li1403  Li1+  0.250  0.050  0.914  0.748
  Li4566  Li1+  0.646  0.846  0.187  0.748
  Li4490  Li1+  0.650  0.646  0.642  0.748
  Li4950  Li1+  0.846  0.046  0.787  0.749
  Li210  Li1+  0.050  0.050  0.896  0.749
  Li5585  Li1+  0.950  0.750  0.286  0.749
  Li3194  Li1+  0.450  0.646  0.242  0.749
  Li632  Li1+  0.050  0.450  0.659  0.749
  Li1596  Li1+  0.250  0.250  0.750  0.750
  Li4877  Li1+  0.950  0.146  0.214  0.750
  Li1980  Li1+  0.250  0.650  0.350  0.750
  Li5697  Li1+  0.950  0.750  0.759  0.750
  Li1642  Li1+  0.350  0.350  0.904  0.750
  Li5634  Li1+  0.850  0.650  0.496  0.750
  Li5063  Li1+  0.896  0.300  0.046  0.750
  Li2704  Li1+  0.550  0.350  0.268  0.751
  Li433  Li1+  0.046  0.246  0.824  0.751
  Li4875  Li1+  0.950  0.150  0.396  0.752
  Li988  Li1+  0.046  0.846  0.006  0.752
  Li2092  Li1+  0.246  0.646  0.606  0.752
  Li782  Li1+  0.100  0.700  0.264  0.752
  Li5491  Li1+  0.900  0.500  0.936  0.753
  Li734  Li1+  0.100  0.700  0.064  0.753
  Li119  Li1+  0.096  0.100  0.446  0.753
  Li5738  Li1+  0.850  0.646  0.842  0.753
  Li1249  Li1+  0.246  0.046  0.224  0.754
  Li932  Li1+  0.150  0.750  0.922  0.754
  Li2506  Li1+  0.550  0.150  0.504  0.754
  Li4375  Li1+  0.746  0.750  0.250  0.754
  Li873  Li1+  0.050  0.650  0.678  0.754
  Li3126  Li1+  0.446  0.646  0.187  0.754
  Li5882  Li1+  0.850  0.846  0.442  0.754
  Li244  Li1+  0.150  0.350  0.177  0.755
  Li2455  Li1+  0.546  0.150  0.250  0.755
  Li2608  Li1+  0.550  0.150  0.868  0.756
  Li1612  Li1+  0.246  0.246  0.606  0.757
  Li4349  Li1+  0.750  0.746  0.014  0.757
  Li2651  Li1+  0.450  0.250  0.114  0.757
  Li4037  Li1+  0.650  0.250  0.968  0.757
  Li311  Li1+  0.096  0.300  0.246  0.758
  Li4758  Li1+  0.646  0.846  0.987  0.758
  Li3474  Li1+  0.450  0.850  0.496  0.758
  Li1601  Li1+  0.350  0.350  0.686  0.759
  Li4823  Li1+  0.896  0.100  0.046  0.759
  Li12  Li1+  0.050  0.050  0.150  0.759
  Li2754  Li1+  0.450  0.250  0.496  0.759
  Li3121  Li1+  0.446  0.646  0.024  0.760
  Li1407  Li1+  0.300  0.100  0.991  0.760
  Li4906  Li1+  0.950  0.150  0.504  0.760
  Li1687  Li1+  0.346  0.550  0.050  0.760
  Li392  Li1+  0.050  0.250  0.659  0.760
  Li2116  Li1+  0.350  0.750  0.977  0.760
  Li1210  Li1+  0.350  0.150  0.104  0.760
  Li2855  Li1+  0.496  0.300  0.846  0.760
  Li10  Li1+  0.150  0.150  0.104  0.761
  Li2983  Li1+  0.546  0.550  0.450  0.761
  Li1172  Li1+  0.150  0.950  0.922  0.761
  Li1648  Li1+  0.350  0.350  0.868  0.761
  Li2722  Li1+  0.500  0.300  0.354  0.761
  Li1297  Li1+  0.246  0.046  0.424  0.761
  Li4012  Li1+  0.646  0.246  0.606  0.761
  Li1934  Li1+  0.300  0.700  0.064  0.762
  Li3314  Li1+  0.550  0.750  0.941  0.762
  Li3479  Li1+  0.496  0.900  0.446  0.762
  Li1778  Li1+  0.350  0.550  0.541  0.762
  Li825  Li1+  0.050  0.650  0.478  0.763
  Li3957  Li1+  0.750  0.346  0.432  0.763
  Li1689  Li1+  0.250  0.450  0.078  0.763
  Li2132  Li1+  0.350  0.750  0.922  0.763
  Li4523  Li1+  0.650  0.650  0.914  0.764
  Li4568  Li1+  0.650  0.850  0.059  0.764
  Li5154  Li1+  0.850  0.250  0.496  0.764
  Li1264  Li1+  0.350  0.150  0.268  0.764
  Li5646  Li1+  0.896  0.696  0.410  0.765
  Li4731  Li1+  0.750  0.950  0.796  0.765
  Li3677  Li1+  0.750  0.146  0.214  0.765
  Li3859  Li1+  0.700  0.300  0.136  0.765
  Li1521  Li1+  0.350  0.350  0.359  0.765
  Li4913  Li1+  0.950  0.150  0.486  0.766
  Li2612  Li1+  0.550  0.150  0.922  0.766
  Li1258  Li1+  0.350  0.150  0.304  0.766
  Li4005  Li1+  0.750  0.346  0.632  0.766
  Li4528  Li1+  0.750  0.750  0.868  0.766
  Li2768  Li1+  0.500  0.300  0.518  0.766
  Li2663  Li1+  0.496  0.300  0.046  0.767
  Li1125  Li1+  0.150  0.946  0.632  0.767
  Li3275  Li1+  0.450  0.650  0.714  0.767
  Li5557  Li1+  0.900  0.700  0.173  0.767
  Li66  Li1+  0.050  0.050  0.296  0.767
  Li2901  Li1+  0.550  0.546  0.032  0.767
  Li460  Li1+  0.046  0.246  0.806  0.768
  Li4628  Li1+  0.750  0.950  0.322  0.768
  Li2945  Li1+  0.550  0.550  0.286  0.768
  Li5713  Li1+  0.846  0.646  0.824  0.768
  Li2737  Li1+  0.446  0.246  0.424  0.768
  Li3477  Li1+  0.550  0.946  0.432  0.768
  Li2225  Li1+  0.350  0.950  0.286  0.768
  Li4672  Li1+  0.750  0.950  0.468  0.770
  Li1013  Li1+  0.050  0.850  0.368  0.770
  Li5285  Li1+  0.850  0.450  0.168  0.770
  Li1829  Li1+  0.250  0.450  0.768  0.770
  Li2174  Li1+  0.300  0.900  0.064  0.770
  Li3189  Li1+  0.550  0.746  0.232  0.770
  Li5861  Li1+  0.850  0.850  0.568  0.771
  Li4497  Li1+  0.750  0.750  0.759  0.771
  Li2979  Li1+  0.450  0.450  0.532  0.771
  Li3082  Li1+  0.550  0.550  0.904  0.771
  Li1060  Li1+  0.150  0.950  0.577  0.771
  Li4199  Li1+  0.696  0.500  0.446  0.772
  Li2316  Li1+  0.250  0.850  0.750  0.772
  Li98  Li1+  0.150  0.150  0.541  0.772
  Li2181  Li1+  0.350  0.946  0.032  0.772
  Li2956  Li1+  0.446  0.446  0.206  0.772
  Li5960  Li1+  0.850  0.850  0.859  0.773
  Li1238  Li1+  0.300  0.100  0.100  0.773
  Li1169  Li1+  0.150  0.950  0.886  0.773
  Li114  Li1+  0.050  0.050  0.496  0.774
  Li5840  Li1+  0.900  0.900  0.318  0.774
  Li645  Li1+  0.150  0.546  0.632  0.774
  Li4637  Li1+  0.750  0.946  0.214  0.774
  Li57  Li1+  0.050  0.050  0.278  0.774
  Li260  Li1+  0.150  0.350  0.122  0.774
  Li4091  Li1+  0.650  0.450  0.114  0.774
  Li913  Li1+  0.046  0.646  0.824  0.775
  Li2957  Li1+  0.550  0.546  0.214  0.775
  Li801  Li1+  0.150  0.750  0.359  0.775
  Li3917  Li1+  0.750  0.346  0.214  0.775
  Li2623  Li1+  0.500  0.100  0.882  0.776
  Li2212  Li1+  0.350  0.950  0.377  0.776
  Li2214  Li1+  0.246  0.846  0.387  0.776
  Li5958  Li1+  0.846  0.846  0.987  0.776
  Li5164  Li1+  0.846  0.246  0.406  0.776
  Li818  Li1+  0.150  0.750  0.541  0.776
  Li4290  Li1+  0.650  0.450  0.896  0.777
  Li105  Li1+  0.050  0.050  0.478  0.777
  Li5067  Li1+  0.950  0.350  0.196  0.777
  Li5342  Li1+  0.900  0.500  0.264  0.777
  Li4625  Li1+  0.750  0.950  0.286  0.778
  Li4657  Li1+  0.646  0.846  0.424  0.778
  Li348  Li1+  0.050  0.250  0.550  0.778
  Li5644  Li1+  0.846  0.646  0.406  0.778
  Li1550  Li1+  0.300  0.300  0.464  0.778
  Li2669  Li1+  0.550  0.346  0.014  0.778
  Li4773  Li1+  0.750  0.946  0.832  0.778
  Li2466  Li1+  0.450  0.050  0.296  0.778
  Li2860  Li1+  0.446  0.246  0.806  0.779
  Li3287  Li1+  0.496  0.700  0.646  0.779
  Li2475  Li1+  0.550  0.150  0.396  0.779
  Li4618  Li1+  0.750  0.950  0.304  0.779
  Li2840  Li1+  0.450  0.250  0.859  0.779
  Li682  Li1+  0.150  0.550  0.904  0.780
  Li106  Li1+  0.150  0.150  0.504  0.780
  Li4481  Li1+  0.750  0.750  0.686  0.780
  Li497  Li1+  0.150  0.550  0.086  0.780
  Li5381  Li1+  0.850  0.450  0.568  0.780
  Li1701  Li1+  0.350  0.546  0.032  0.781
  Li1218  Li1+  0.250  0.050  0.096  0.781
  Li3335  Li1+  0.496  0.700  0.846  0.781
  Li3437  Li1+  0.550  0.946  0.214  0.781
  Li155  Li1+  0.050  0.050  0.714  0.781
  Li1233  Li1+  0.350  0.150  0.159  0.781
  Li4131  Li1+  0.650  0.450  0.332  0.781
  Li5236  Li1+  0.950  0.350  0.977  0.782
  Li3294  Li1+  0.496  0.696  0.610  0.782
  Li1307  Li1+  0.250  0.050  0.514  0.782
  Li5242  Li1+  0.950  0.350  0.904  0.782
  Li1730  Li1+  0.350  0.550  0.341  0.782
  Li3706  Li1+  0.750  0.150  0.504  0.783
  Li2951  Li1+  0.496  0.500  0.246  0.784
  Li1877  Li1+  0.250  0.450  0.968  0.784
  Li1446  Li1+  0.246  0.246  0.187  0.784
  Li2407  Li1+  0.546  0.150  0.050  0.785
  Li3532  Li1+  0.446  0.846  0.606  0.786
  Li3989  Li1+  0.650  0.250  0.768  0.786
  Li5152  Li1+  0.950  0.350  0.468  0.786
  Li784  Li1+  0.150  0.750  0.268  0.786
  Li4060  Li1+  0.646  0.246  0.806  0.786
  Li2507  Li1+  0.450  0.050  0.514  0.786
  Li3701  Li1+  0.650  0.050  0.568  0.787
  Li4369  Li1+  0.646  0.646  0.224  0.787
  Li2602  Li1+  0.550  0.150  0.904  0.787
  Li2546  Li1+  0.550  0.150  0.741  0.788
  Li5334  Li1+  0.846  0.446  0.387  0.788
  Li2883  Li1+  0.450  0.450  0.132  0.788
  Li3994  Li1+  0.750  0.350  0.704  0.788
  Li5354  Li1+  0.850  0.446  0.242  0.789
  Li1636  Li1+  0.350  0.350  0.977  0.789
  Li5817  Li1+  0.850  0.850  0.278  0.789
  Li5475  Li1+  0.850  0.450  0.932  0.789
  Li4422  Li1+  0.646  0.646  0.587  0.789
  Li3568  Li1+  0.550  0.950  0.868  0.789
  Li676  Li1+  0.150  0.550  0.977  0.790
  Li5781  Li1+  0.950  0.946  0.032  0.790
  Li2601  Li1+  0.450  0.050  0.878  0.790
  Li3367  Li1+  0.546  0.950  0.050  0.790
  Li3939  Li1+  0.650  0.250  0.532  0.790
  Li2032  Li1+  0.350  0.750  0.468  0.790
  Li2410  Li1+  0.550  0.150  0.104  0.791
  Li846  Li1+  0.096  0.696  0.410  0.791
  Li4083  Li1+  0.650  0.450  0.132  0.791
  Li5153  Li1+  0.950  0.350  0.486  0.791
  Li4202  Li1+  0.650  0.446  0.442  0.791
  Li3297  Li1+  0.550  0.750  0.759  0.792
  Li2944  Li1+  0.550  0.550  0.268  0.792
  Li2621  Li1+  0.550  0.146  0.814  0.793
  Li3844  Li1+  0.750  0.350  0.177  0.793
  Li5396  Li1+  0.950  0.550  0.522  0.793
  Li3953  Li1+  0.750  0.350  0.486  0.793
  Li1736  Li1+  0.250  0.450  0.259  0.793
  Li4140  Li1+  0.650  0.450  0.350  0.793
  Li1639  Li1+  0.346  0.350  0.850  0.793
  Li3898  Li1+  0.750  0.350  0.304  0.793
  Li3518  Li1+  0.500  0.900  0.664  0.794
  Li2696  Li1+  0.450  0.250  0.259  0.794
  Li548  Li1+  0.150  0.550  0.322  0.794
  Li3383  Li1+  0.496  0.900  0.046  0.794
  Li2642  Li1+  0.550  0.350  0.141  0.795
  Li5548  Li1+  0.846  0.646  0.006  0.796
  Li3753  Li1+  0.650  0.050  0.678  0.796
  Li3962  Li1+  0.650  0.246  0.442  0.796
  Li4247  Li1+  0.696  0.500  0.646  0.796
  Li3228  Li1+  0.450  0.650  0.550  0.796
  Li448  Li1+  0.150  0.350  0.868  0.796
  Li728  Li1+  0.050  0.650  0.059  0.796
  Li3633  Li1+  0.750  0.150  0.159  0.797
  Li4516  Li1+  0.750  0.750  0.977  0.797
  Li3219  Li1+  0.450  0.650  0.532  0.798
  Li69  Li1+  0.150  0.146  0.232  0.798
  Li2908  Li1+  0.446  0.446  0.006  0.798
  Li5021  Li1+  0.950  0.146  0.814  0.799
  Li5537  Li1+  0.950  0.750  0.086  0.799
  Li4904  Li1+  0.850  0.050  0.459  0.799
  Li156  Li1+  0.050  0.050  0.750  0.800
  Li3123  Li1+  0.450  0.650  0.132  0.800
  Li2939  Li1+  0.450  0.450  0.314  0.800
  Li4474  Li1+  0.750  0.750  0.704  0.800
  Li996  Li1+  0.096  0.896  0.028  0.800
  Li5820  Li1+  0.850  0.850  0.350  0.801
  Li4328  Li1+  0.650  0.650  0.059  0.801
  Li1256  Li1+  0.250  0.050  0.259  0.801
  Li870  Li1+  0.046  0.646  0.787  0.801
  Li4157  Li1+  0.750  0.546  0.214  0.801
  Li5163  Li1+  0.950  0.350  0.596  0.801
  Li609  Li1+  0.150  0.550  0.559  0.801
  Li2790  Li1+  0.446  0.246  0.787  0.801
  Li2237  Li1+  0.350  0.946  0.214  0.801
  Li461  Li1+  0.150  0.346  0.814  0.802
  Li1312  Li1+  0.350  0.150  0.468  0.802
  Li5777  Li1+  0.950  0.950  0.086  0.802
  Li1832  Li1+  0.250  0.450  0.659  0.802
  Li1516  Li1+  0.246  0.246  0.206  0.802
  Li2551  Li1+  0.546  0.150  0.650  0.802
  Li3570  Li1+  0.450  0.850  0.896  0.803
  Li3907  Li1+  0.700  0.300  0.336  0.803
  Li1402  Li1+  0.350  0.150  0.904  0.803
  Li4514  Li1+  0.750  0.750  0.941  0.804
  Li5809  Li1+  0.846  0.846  0.224  0.804
  Li2881  Li1+  0.446  0.446  0.024  0.804
  Li3658  Li1+  0.750  0.150  0.304  0.804
  Li129  Li1+  0.150  0.150  0.559  0.805
  Li2717  Li1+  0.550  0.346  0.214  0.805
  Li1351  Li1+  0.346  0.150  0.650  0.805
  Li3920  Li1+  0.700  0.300  0.318  0.805
  Li557  Li1+  0.150  0.546  0.214  0.805
  Li4144  Li1+  0.750  0.550  0.268  0.806
  Li3621  Li1+  0.750  0.146  0.032  0.806
  Li653  Li1+  0.150  0.546  0.614  0.806
  Li3191  Li1+  0.496  0.700  0.246  0.806
  Li354  Li1+  0.050  0.250  0.496  0.806
  Li2257  Li1+  0.246  0.846  0.424  0.806
  Li5392  Li1+  0.950  0.550  0.468  0.806
  Li2887  Li1+  0.546  0.550  0.050  0.807
  Li2988  Li1+  0.450  0.450  0.550  0.807
  Li3489  Li1+  0.550  0.950  0.559  0.807
  Li1  Li1+  0.046  0.046  0.024  0.807
  Li3266  Li1+  0.550  0.750  0.741  0.808
  Li2450  Li1+  0.550  0.150  0.341  0.808
  Li1108  Li1+  0.150  0.950  0.777  0.808
  Li1158  Li1+  0.046  0.846  0.987  0.808
  Li3138  Li1+  0.450  0.650  0.096  0.808
  Li3221  Li1+  0.450  0.650  0.568  0.808
  Li677  Li1+  0.050  0.450  0.968  0.808
  Li2837  Li1+  0.450  0.250  0.968  0.809
  Li2501  Li1+  0.450  0.050  0.568  0.809
  Li2656  Li1+  0.550  0.350  0.068  0.809
  Li4994  Li1+  0.950  0.150  0.941  0.809
  Li3435  Li1+  0.550  0.950  0.396  0.809
  Li2028  Li1+  0.250  0.650  0.550  0.809
  Li3372  Li1+  0.450  0.850  0.150  0.810
  Li2165  Li1+  0.250  0.850  0.168  0.810
  Li5438  Li1+  0.900  0.500  0.664  0.810
  Li3557  Li1+  0.450  0.850  0.968  0.810
  Li3180  Li1+  0.450  0.650  0.350  0.810
  Li5111  Li1+  0.896  0.300  0.246  0.810
  Li5297  Li1+  0.950  0.550  0.086  0.810
  Li5115  Li1+  0.950  0.350  0.396  0.810
  Li5281  Li1+  0.846  0.446  0.024  0.810
  Li2833  Li1+  0.446  0.246  0.824  0.810
  Li3136  Li1+  0.550  0.750  0.068  0.811
  Li2045  Li1+  0.350  0.746  0.414  0.811
  Li1841  Li1+  0.350  0.550  0.686  0.812
  Li4108  Li1+  0.646  0.446  0.006  0.812
  Li5639  Li1+  0.896  0.700  0.446  0.812
  Li3820  Li1+  0.646  0.046  0.806  0.812
  Li3660  Li1+  0.650  0.050  0.350  0.813
  Li2073  Li1+  0.250  0.650  0.678  0.813
  Li976  Li1+  0.150  0.950  0.068  0.813
  Li4086  Li1+  0.646  0.446  0.187  0.813
  Li5121  Li1+  0.950  0.350  0.359  0.813
  Li1419  Li1+  0.350  0.150  0.996  0.814
  Li5588  Li1+  0.950  0.750  0.322  0.814
  Li3906  Li1+  0.650  0.250  0.296  0.814
  Li3873  Li1+  0.750  0.350  0.159  0.814
  Li1734  Li1+  0.246  0.446  0.387  0.814
  Li221  Li1+  0.150  0.146  0.814  0.815
  Li3318  Li1+  0.446  0.646  0.987  0.815
  Li161  Li1+  0.150  0.150  0.686  0.815
  Li5201  Li1+  0.950  0.350  0.686  0.815
  Li4000  Li1+  0.750  0.350  0.668  0.815
  Li4395  Li1+  0.750  0.750  0.396  0.815
  Li5771  Li1+  0.850  0.850  0.114  0.816
  Li5366  Li1+  0.900  0.500  0.300  0.816
  Li3841  Li1+  0.646  0.246  0.024  0.816
  Li2429  Li1+  0.550  0.146  0.014  0.817
  Li2476  Li1+  0.446  0.046  0.206  0.817
  Li5090  Li1+  0.950  0.350  0.341  0.817
  Li3869  Li1+  0.750  0.346  0.014  0.817
  Li2308  Li1+  0.350  0.950  0.777  0.817
  Li5146  Li1+  0.950  0.350  0.504  0.817
  Li2042  Li1+  0.250  0.646  0.442  0.817
  Li5258  Li1+  0.850  0.246  0.842  0.817
  Li2935  Li1+  0.546  0.550  0.250  0.818
  Li5719  Li1+  0.946  0.750  0.850  0.818
  Li5543  Li1+  0.896  0.700  0.046  0.818
  Li1450  Li1+  0.350  0.350  0.104  0.819
  Li577  Li1+  0.046  0.446  0.424  0.819
  Li2140  Li1+  0.246  0.646  0.806  0.819
  Li344  Li1+  0.050  0.250  0.459  0.820
  Li1764  Li1+  0.296  0.496  0.228  0.820
  Li3074  Li1+  0.550  0.550  0.941  0.820
  Li1694  Li1+  0.300  0.500  0.064  0.820
  Li3009  Li1+  0.550  0.550  0.559  0.820
  Li1202  Li1+  0.350  0.150  0.141  0.820
  Li1539  Li1+  0.250  0.250  0.532  0.821
  Li3465  Li1+  0.450  0.850  0.478  0.821
  Li2285  Li1+  0.350  0.946  0.414  0.821
  Li4282  Li1+  0.750  0.550  0.904  0.821
  Li151  Li1+  0.146  0.150  0.650  0.821
  Li4492  Li1+  0.646  0.646  0.606  0.822
  Li3795  Li1+  0.650  0.050  0.932  0.822
  Li2027  Li1+  0.250  0.650  0.514  0.822
  Li2647  Li1+  0.546  0.350  0.050  0.822
  Li3534  Li1+  0.496  0.896  0.610  0.822
  Li1014  Li1+  0.046  0.846  0.387  0.823
  Li1428  Li1+  0.296  0.096  0.828  0.823
  Li4038  Li1+  0.646  0.246  0.987  0.823
  Li2138  Li1+  0.250  0.646  0.842  0.823
  Li3077  Li1+  0.450  0.450  0.968  0.823
  Li1660  Li1+  0.246  0.246  0.806  0.823
  Li4635  Li1+  0.750  0.950  0.396  0.823
  Li50  Li1+  0.150  0.150  0.341  0.823
  Li1684  Li1+  0.350  0.550  0.177  0.824
  Li2468  Li1+  0.550  0.150  0.322  0.824
  Li3374  Li1+  0.500  0.900  0.064  0.824
  Li220  Li1+  0.046  0.046  0.806  0.824
  Li1026  Li1+  0.050  0.850  0.296  0.824
  Li5344  Li1+  0.950  0.550  0.268  0.824
  Li2126  Li1+  0.300  0.700  0.864  0.824
  Li1757  Li1+  0.350  0.546  0.214  0.824
  Li508  Li1+  0.046  0.446  0.006  0.824
  Li5234  Li1+  0.950  0.350  0.941  0.824
  Li5260  Li1+  0.846  0.246  0.806  0.825
  Li1265  Li1+  0.350  0.150  0.286  0.825
  Li4149  Li1+  0.750  0.546  0.232  0.825
  Li5340  Li1+  0.850  0.450  0.350  0.825
  Li4899  Li1+  0.850  0.050  0.532  0.825
  Li2652  Li1+  0.450  0.250  0.150  0.826
  Li5331  Li1+  0.850  0.450  0.332  0.826
  Li5286  Li1+  0.846  0.446  0.187  0.826
  Li5296  Li1+  0.950  0.550  0.068  0.827
  Li5217  Li1+  0.950  0.350  0.759  0.827
  Li4068  Li1+  0.696  0.296  0.828  0.827
  Li743  Li1+  0.096  0.700  0.046  0.827
  Li4636  Li1+  0.646  0.846  0.206  0.827
  Li2610  Li1+  0.450  0.050  0.896  0.828
  Li4017  Li1+  0.750  0.350  0.759  0.828
  Li2529  Li1+  0.550  0.150  0.559  0.828
  Li1395  Li1+  0.250  0.050  0.932  0.828
  Li1787  Li1+  0.250  0.450  0.514  0.829
  Li4725  Li1+  0.750  0.946  0.632  0.829
  Li884  Li1+  0.150  0.750  0.722  0.829
  Li3947  Li1+  0.650  0.250  0.514  0.829
  Li4293  Li1+  0.750  0.546  0.832  0.829
  Li2852  Li1+  0.550  0.350  0.922  0.829
  Li3579  Li1+  0.550  0.950  0.996  0.829
  Li3179  Li1+  0.450  0.650  0.314  0.829
  Li2416  Li1+  0.550  0.150  0.068  0.829
  Li5764  Li1+  0.950  0.950  0.177  0.829
  Li254  Li1+  0.100  0.300  0.064  0.830
  Li2560  Li1+  0.550  0.150  0.668  0.830
  Li2620  Li1+  0.446  0.046  0.806  0.830
  Li3503  Li1+  0.529  0.808  0.594  0.830
  Li5002  Li1+  0.950  0.150  0.904  0.830
  Li3441  Li1+  0.550  0.950  0.359  0.830
  Li1779  Li1+  0.250  0.450  0.532  0.830
  Li4070  Li1+  0.700  0.300  0.900  0.830
  Li1112  Li1+  0.050  0.850  0.659  0.830
  Li545  Li1+  0.150  0.550  0.286  0.831
  Li1491  Li1+  0.250  0.250  0.332  0.831
  Li5624  Li1+  0.850  0.650  0.459  0.831
  Li2741  Li1+  0.450  0.250  0.568  0.832
  Li1975  Li1+  0.346  0.750  0.250  0.832
  Li401  Li1+  0.150  0.350  0.686  0.832
  Li5574  Li1+  0.846  0.646  0.387  0.832
  Li2017  Li1+  0.246  0.646  0.424  0.832
  Li5329  Li1+  0.846  0.446  0.224  0.832
  Li2018  Li1+  0.350  0.750  0.541  0.832
  Li4283  Li1+  0.650  0.450  0.914  0.832
  Li268  Li1+  0.046  0.246  0.006  0.833
  Li5500  Li1+  0.846  0.446  0.806  0.833
  Li4624  Li1+  0.750  0.950  0.268  0.833
  Li2750  Li1+  0.500  0.300  0.464  0.834
  Li5741  Li1+  0.950  0.746  0.814  0.834
  Li3186  Li1+  0.450  0.650  0.296  0.834
  Li2836  Li1+  0.550  0.350  0.977  0.834
  Li3249  Li1+  0.550  0.750  0.559  0.834
  Li923  Li1+  0.050  0.650  0.914  0.834
  Li2753  Li1+  0.550  0.350  0.486  0.835
  Li1524  Li1+  0.296  0.296  0.228  0.835
  Li1751  Li1+  0.296  0.500  0.246  0.835
  Li3627  Li1+  0.750  0.150  0.196  0.835
  Li1063  Li1+  0.146  0.950  0.450  0.835
  Li4869  Li1+  0.950  0.146  0.232  0.835
  Li1255  Li1+  0.346  0.150  0.250  0.836
  Li5981  Li1+  0.950  0.946  0.814  0.836
  Li485  Li1+  0.050  0.450  0.168  0.836
  Li3856  Li1+  0.750  0.350  0.068  0.836
  Li3713  Li1+  0.750  0.150  0.486  0.836
  Li2071  Li1+  0.346  0.750  0.650  0.837
  Li1999  Li1+  0.300  0.700  0.282  0.837
  Li1732  Li1+  0.350  0.550  0.377  0.837
  Li5968  Li1+  0.950  0.950  0.868  0.837
  Li4495  Li1+  0.700  0.700  0.682  0.838
  Li5049  Li1+  0.850  0.250  0.078  0.838
  Li4721  Li1+  0.750  0.950  0.686  0.838
  Li4807  Li1+  0.946  0.150  0.050  0.838
  Li5642  Li1+  0.850  0.646  0.442  0.838
  Li122  Li1+  0.050  0.046  0.442  0.839
  Li3714  Li1+  0.650  0.050  0.496  0.839
  Li4897  Li1+  0.846  0.046  0.424  0.839
  Li4035  Li1+  0.650  0.250  0.932  0.839
  Li872  Li1+  0.050  0.650  0.659  0.839
  Li5953  Li1+  0.846  0.846  0.824  0.839
  Li3708  Li1+  0.650  0.050  0.550  0.839
  Li1035  Li1+  0.150  0.950  0.396  0.840
  Li2512  Li1+  0.550  0.150  0.468  0.840
  Li1758  Li1+  0.296  0.496  0.210  0.840
  Li3315  Li1+  0.450  0.650  0.932  0.840
  Li1231  Li1+  0.300  0.100  0.082  0.841
  Li2913  Li1+  0.550  0.550  0.159  0.841
  Li3380  Li1+  0.550  0.950  0.122  0.841
  Li5867  Li1+  0.850  0.850  0.514  0.841
  Li4658  Li1+  0.750  0.950  0.541  0.841
  Li201  Li1+  0.050  0.050  0.878  0.842
  Li1308  Li1+  0.250  0.050  0.550  0.842
  Li2999  Li1+  0.496  0.500  0.446  0.842
  Li5452  Li1+  0.846  0.446  0.606  0.842
  Li488  Li1+  0.050  0.450  0.059  0.842
  Li3330  Li1+  0.450  0.650  0.896  0.842
  Li2190  Li1+  0.296  0.896  0.010  0.842
  Li5290  Li1+  0.950  0.550  0.104  0.842
  Li9  Li1+  0.050  0.050  0.078  0.842
  Li2658  Li1+  0.450  0.250  0.096  0.842
  Li2896  Li1+  0.550  0.550  0.068  0.843
  Li4524  Li1+  0.650  0.650  0.950  0.843
  Li5402  Li1+  0.850  0.446  0.442  0.843
  Li681  Li1+  0.050  0.450  0.878  0.843
  Li1010  Li1+  0.150  0.950  0.341  0.844
  Li1349  Li1+  0.250  0.050  0.768  0.844
  Li304  Li1+  0.150  0.350  0.268  0.844
  Li1317  Li1+  0.350  0.146  0.432  0.844
  Li263  Li1+  0.096  0.300  0.046  0.844
  Li1401  Li1+  0.250  0.050  0.878  0.845
  Li2122  Li1+  0.350  0.750  0.904  0.845
  Li5476  Li1+  0.950  0.550  0.977  0.845
  Li5337  Li1+  0.850  0.450  0.278  0.845
  Li4151  Li1+  0.696  0.500  0.246  0.845
  Li5483  Li1+  0.850  0.450  0.914  0.845
  Li4034  Li1+  0.750  0.350  0.941  0.845
  Li2309  Li1+  0.250  0.850  0.768  0.846
  Li651  Li1+  0.150  0.550  0.796  0.846
  Li2848  Li1+  0.550  0.350  0.868  0.846
  Li3858  Li1+  0.650  0.250  0.096  0.846
  Li2217  Li1+  0.250  0.850  0.278  0.847
  Li3427  Li1+  0.500  0.900  0.336  0.847
  Li1178  Li1+  0.050  0.846  0.842  0.847
  Li4292  Li1+  0.750  0.550  0.922  0.847
  Li1083  Li1+  0.150  0.950  0.596  0.847
  Li3028  Li1+  0.550  0.550  0.777  0.847
  Li1410  Li1+  0.250  0.050  0.896  0.847
  Li3316  Li1+  0.550  0.750  0.977  0.848
  Li636  Li1+  0.050  0.450  0.750  0.848
  Li54  Li1+  0.046  0.046  0.387  0.848
  Li2700  Li1+  0.450  0.250  0.350  0.848
  Li1017  Li1+  0.050  0.850  0.278  0.848
  Li4955  Li1+  0.850  0.050  0.714  0.848
  Li1794  Li1+  0.250  0.450  0.496  0.848
  Li1876  Li1+  0.350  0.550  0.977  0.848
  Li4145  Li1+  0.750  0.550  0.286  0.848
  Li3410  Li1+  0.550  0.950  0.341  0.849
  Li2224  Li1+  0.350  0.950  0.268  0.849
  Li5492  Li1+  0.950  0.550  0.922  0.849
  Li5212  Li1+  0.846  0.246  0.606  0.849
  Li4827  Li1+  0.950  0.150  0.196  0.849
  Li3276  Li1+  0.450  0.650  0.750  0.849
  Li4418  Li1+  0.750  0.750  0.541  0.850
  Li1690  Li1+  0.350  0.550  0.104  0.850
  Li338  Li1+  0.150  0.350  0.541  0.850
  Li4001  Li1+  0.750  0.350  0.686  0.850
  Li5628  Li1+  0.850  0.650  0.550  0.850
  Li4148  Li1+  0.750  0.550  0.322  0.850
  Li5385  Li1+  0.850  0.450  0.478  0.851
  Li5860  Li1+  0.950  0.950  0.577  0.851
  Li688  Li1+  0.150  0.550  0.868  0.851
  Li4780  Li1+  0.646  0.846  0.806  0.851
  Li3080  Li1+  0.450  0.450  0.859  0.851
  Li1600  Li1+  0.350  0.350  0.668  0.851
  Li5006  Li1+  0.900  0.100  0.864  0.851
  Li4370  Li1+  0.750  0.750  0.341  0.851
  Li2025  Li1+  0.250  0.650  0.478  0.852
  Li1804  Li1+  0.246  0.446  0.406  0.852
  Li5255  Li1+  0.896  0.300  0.846  0.852
  Li1130  Li1+  0.050  0.846  0.642  0.852
  Li2033  Li1+  0.350  0.750  0.486  0.852
  Li5531  Li1+  0.850  0.650  0.114  0.853
  Li5776  Li1+  0.950  0.950  0.068  0.853
  Li3341  Li1+  0.550  0.746  0.814  0.853
  Li3100  Li1+  0.446  0.446  0.806  0.853
  Li1783  Li1+  0.346  0.550  0.450  0.853
  Li4331  Li1+  0.650  0.650  0.114  0.854
  Li1500  Li1+  0.250  0.250  0.350  0.854
  Li2171  Li1+  0.250  0.850  0.114  0.854
  Li4865  Li1+  0.950  0.150  0.286  0.854
  Li2178  Li1+  0.250  0.850  0.096  0.854
  Li5069  Li1+  0.950  0.346  0.014  0.855
  Li2277  Li1+  0.350  0.946  0.432  0.855
  Li2465  Li1+  0.550  0.150  0.286  0.855
  Li4044  Li1+  0.650  0.250  0.950  0.855
  Li1373  Li1+  0.350  0.146  0.614  0.855
  Li500  Li1+  0.150  0.550  0.122  0.855
  Li993  Li1+  0.150  0.950  0.159  0.855
  Li2802  Li1+  0.450  0.250  0.696  0.856
  Li442  Li1+  0.150  0.350  0.904  0.856
  Li4971  Li1+  0.950  0.150  0.796  0.856
  Li107  Li1+  0.050  0.050  0.514  0.856
  Li2757  Li1+  0.550  0.346  0.432  0.856
  Li343  Li1+  0.146  0.350  0.450  0.857
  Li2948  Li1+  0.550  0.550  0.322  0.857
  Li5378  Li1+  0.950  0.550  0.541  0.857
  Li5877  Li1+  0.950  0.946  0.432  0.857
  Li3537  Li1+  0.550  0.950  0.759  0.857
  Li4446  Li1+  0.696  0.696  0.410  0.857
  Li4113  Li1+  0.750  0.550  0.159  0.858
  Li5632  Li1+  0.950  0.750  0.468  0.858
  Li2526  Li1+  0.496  0.096  0.410  0.858
  Li5819  Li1+  0.850  0.850  0.314  0.858
  Li1085  Li1+  0.150  0.946  0.414  0.858
  Li5188  Li1+  0.950  0.350  0.777  0.858
  Li3719  Li1+  0.696  0.100  0.446  0.859
  Li3699  Li1+  0.650  0.050  0.532  0.859
  Li4288  Li1+  0.750  0.550  0.868  0.859
  Li4298  Li1+  0.650  0.446  0.842  0.860
  Li732  Li1+  0.050  0.650  0.150  0.860
  Li5978  Li1+  0.850  0.846  0.842  0.860
  Li5916  Li1+  0.850  0.850  0.750  0.860
  Li3748  Li1+  0.750  0.150  0.777  0.861
  Li5289  Li1+  0.850  0.450  0.078  0.861
  Li787  Li1+  0.100  0.700  0.336  0.861
  Li771  Li1+  0.050  0.650  0.332  0.861
  Li592  Li1+  0.150  0.550  0.468  0.861
  Li2234  Li1+  0.250  0.846  0.242  0.861
  Li1306  Li1+  0.350  0.150  0.504  0.861
  Li3321  Li1+  0.450  0.650  0.878  0.862
  Li891  Li1+  0.150  0.750  0.796  0.862
  Li300  Li1+  0.050  0.250  0.350  0.862
  Li345  Li1+  0.050  0.250  0.478  0.862
  Li5621  Li1+  0.850  0.650  0.568  0.862
  Li3716  Li1+  0.750  0.150  0.522  0.862
  Li2289  Li1+  0.350  0.950  0.559  0.862
  Li5550  Li1+  0.896  0.696  0.010  0.862
  Li929  Li1+  0.150  0.750  0.886  0.863
  Li28  Li1+  0.046  0.046  0.006  0.863
  Li1845  Li1+  0.350  0.546  0.632  0.863
  Li1585  Li1+  0.246  0.246  0.624  0.863
  Li2406  Li1+  0.446  0.046  0.187  0.863
  Li86  Li1+  0.100  0.100  0.300  0.863
  Li5575  Li1+  0.946  0.750  0.250  0.863
  Li579  Li1+  0.050  0.450  0.532  0.863
  Li1792  Li1+  0.350  0.550  0.468  0.864
  Li2020  Li1+  0.350  0.750  0.577  0.864
  Li5339  Li1+  0.850  0.450  0.314  0.864
  Li2595  Li1+  0.450  0.050  0.932  0.864
  Li5001  Li1+  0.850  0.050  0.878  0.864
  Li3515  Li1+  0.450  0.850  0.714  0.864
  Li3220  Li1+  0.550  0.750  0.577  0.864
  Li3563  Li1+  0.450  0.850  0.914  0.865
  Li1250  Li1+  0.350  0.150  0.341  0.865
  Li4483  Li1+  0.700  0.700  0.736  0.865
  Li2738  Li1+  0.550  0.350  0.541  0.865
  Li930  Li1+  0.050  0.650  0.896  0.865
  Li1974  Li1+  0.246  0.646  0.387  0.865
  Li413  Li1+  0.150  0.346  0.614  0.865
  Li5541  Li1+  0.950  0.746  0.032  0.865
  Li5104  Li1+  0.950  0.350  0.268  0.866
  Li2000  Li1+  0.300  0.700  0.318  0.866
  Li3033  Li1+  0.450  0.450  0.678  0.866
  Li2368  Li1+  0.350  0.950  0.868  0.866
  Li730  Li1+  0.150  0.750  0.104  0.866
  Li917  Li1+  0.050  0.650  0.968  0.866
  Li2946  Li1+  0.450  0.450  0.296  0.866
  Li501  Li1+  0.150  0.546  0.032  0.867
  Li4802  Li1+  0.950  0.150  0.141  0.867
  Li679  Li1+  0.146  0.550  0.850  0.867
  Li2164  Li1+  0.350  0.950  0.177  0.867
  Li2932  Li1+  0.550  0.550  0.377  0.867
  Li5579  Li1+  0.850  0.650  0.314  0.868
  Li578  Li1+  0.150  0.550  0.541  0.868
  Li926  Li1+  0.100  0.700  0.864  0.868
  Li2037  Li1+  0.350  0.746  0.432  0.868
  Li5836  Li1+  0.846  0.846  0.206  0.868
  Li1547  Li1+  0.250  0.250  0.514  0.869
  Li1156  Li1+  0.150  0.950  0.977  0.869
  Li5873  Li1+  0.950  0.950  0.486  0.869
  Li918  Li1+  0.046  0.646  0.987  0.869
  Li3522  Li1+  0.450  0.850  0.696  0.869
  Li3280  Li1+  0.550  0.750  0.668  0.869
  Li2514  Li1+  0.450  0.050  0.496  0.869
  Li410  Li1+  0.050  0.246  0.642  0.869
  Li4447  Li1+  0.700  0.700  0.482  0.870
  Li3388  Li1+  0.446  0.846  0.006  0.871
  Li5205  Li1+  0.950  0.346  0.632  0.871
  Li4194  Li1+  0.650  0.450  0.496  0.871
  Li1274  Li1+  0.250  0.046  0.242  0.871
  Li1316  Li1+  0.350  0.150  0.522  0.872
  Li1940  Li1+  0.350  0.750  0.122  0.872
  Li417  Li1+  0.150  0.350  0.759  0.872
  Li3569  Li1+  0.550  0.950  0.886  0.872
  Li1890  Li1+  0.250  0.450  0.896  0.872
  Li2417  Li1+  0.550  0.150  0.086  0.873
  Li364  Li1+  0.046  0.246  0.406  0.873
  Li3417  Li1+  0.450  0.850  0.278  0.873
  Li5148  Li1+  0.850  0.250  0.550  0.873
  Li1371  Li1+  0.350  0.150  0.796  0.873
  Li1441  Li1+  0.246  0.246  0.024  0.874
  Li5020  Li1+  0.846  0.046  0.806  0.874
  Li3036  Li1+  0.450  0.450  0.750  0.875
  Li4973  Li1+  0.950  0.146  0.614  0.875
  Li3052  Li1+  0.446  0.446  0.606  0.875
  Li2370  Li1+  0.250  0.850  0.896  0.875
  Li1276  Li1+  0.246  0.046  0.206  0.875
  Li775  Li1+  0.146  0.750  0.250  0.875
  Li3733  Li1+  0.700  0.100  0.573  0.876
  Li4666  Li1+  0.750  0.950  0.504  0.876
  Li4225  Li1+  0.646  0.446  0.624  0.876
  Li5576  Li1+  0.850  0.650  0.259  0.876
  Li2219  Li1+  0.250  0.850  0.314  0.876
  Li3764  Li1+  0.750  0.150  0.722  0.876
  Li845  Li1+  0.150  0.746  0.414  0.877
  Li4041  Li1+  0.650  0.250  0.878  0.877
  Li5427  Li1+  0.850  0.450  0.732  0.877
  Li1569  Li1+  0.350  0.350  0.559  0.878
  Li252  Li1+  0.050  0.250  0.150  0.878
  Li2  Li1+  0.150  0.150  0.141  0.878
  Li2705  Li1+  0.550  0.350  0.286  0.878
  Li4466  Li1+  0.750  0.750  0.741  0.879
  Li4371  Li1+  0.650  0.650  0.332  0.879
  Li3652  Li1+  0.750  0.150  0.377  0.879
  Li4480  Li1+  0.750  0.750  0.668  0.879
  Li3575  Li1+  0.496  0.900  0.846  0.879
  Li5825  Li1+  0.950  0.950  0.286  0.879
  Li1072  Li1+  0.150  0.950  0.468  0.879
  Li5865  Li1+  0.850  0.850  0.478  0.879
  Li2082  Li1+  0.250  0.650  0.696  0.880
  Li1883  Li1+  0.250  0.450  0.914  0.880
  Li4096  Li1+  0.750  0.550  0.068  0.880
  Li3083  Li1+  0.450  0.450  0.914  0.880
  Li3237  Li1+  0.550  0.746  0.432  0.881
  Li5829  Li1+  0.950  0.946  0.232  0.881
  Li549  Li1+  0.150  0.546  0.232  0.881
  Li1515  Li1+  0.350  0.350  0.396  0.881
  Li5721  Li1+  0.850  0.650  0.878  0.881
  Li3313  Li1+  0.446  0.646  0.824  0.881
  Li874  Li1+  0.150  0.750  0.704  0.881
  Li3030  Li1+  0.446  0.446  0.787  0.881
  Li921  Li1+  0.050  0.650  0.878  0.881
  Li3105  Li1+  0.550  0.550  0.959  0.882
  Li165  Li1+  0.150  0.146  0.632  0.882
  Li4587  Li1+  0.750  0.950  0.196  0.882
  Li5961  Li1+  0.850  0.850  0.878  0.882
  Li5750  Li1+  0.900  0.700  0.900  0.882
  Li5879  Li1+  0.896  0.900  0.446  0.882
  Li171  Li1+  0.150  0.150  0.796  0.882
  Li3223  Li1+  0.546  0.750  0.450  0.882
  Li4052  Li1+  0.750  0.350  0.922  0.883
  Li4244  Li1+  0.750  0.550  0.722  0.883
  Li2909  Li1+  0.550  0.546  0.014  0.883
  Li4325  Li1+  0.650  0.650  0.168  0.883
  Li224  Li1+  0.100  0.100  0.918  0.883
  Li4586  Li1+  0.650  0.846  0.042  0.884
  Li250  Li1+  0.150  0.350  0.104  0.884
  Li23  Li1+  0.096  0.100  0.046  0.884
  Li1995  Li1+  0.350  0.750  0.396  0.884
  Li3606  Li1+  0.646  0.046  0.187  0.884
  Li3747  Li1+  0.650  0.050  0.732  0.884
  Li2748  Li1+  0.450  0.250  0.550  0.884
  Li5050  Li1+  0.950  0.350  0.104  0.884
  Li2305  Li1+  0.246  0.846  0.624  0.885
  Li1785  Li1+  0.250  0.450  0.478  0.885
  Li593  Li1+  0.150  0.550  0.486  0.885
  Li4196  Li1+  0.750  0.550  0.522  0.885
  Li5186  Li1+  0.950  0.350  0.741  0.885
  Li3623  Li1+  0.696  0.100  0.046  0.885
  Li3414  Li1+  0.446  0.846  0.387  0.885
  Li3461  Li1+  0.450  0.850  0.568  0.885
  Li1257  Li1+  0.250  0.050  0.278  0.885
  Li1563  Li1+  0.350  0.350  0.596  0.885
  Li5602  Li1+  0.900  0.700  0.354  0.886
  Li1227  Li1+  0.350  0.150  0.196  0.886
  Li1027  Li1+  0.100  0.900  0.336  0.886
  Li4529  Li1+  0.750  0.750  0.886  0.886
  Li3084  Li1+  0.450  0.450  0.950  0.886
  Li4002  Li1+  0.650  0.250  0.696  0.886
  Li3234  Li1+  0.450  0.650  0.496  0.886
  Li5108  Li1+  0.950  0.350  0.322  0.887
  Li4772  Li1+  0.750  0.950  0.922  0.887
  Li867  Li1+  0.050  0.650  0.732  0.887
  Li246  Li1+  0.046  0.246  0.187  0.887
  Li683  Li1+  0.050  0.450  0.914  0.887
  Li2362  Li1+  0.350  0.950  0.904  0.888
  Li640  Li1+  0.150  0.550  0.668  0.888
  Li2898  Li1+  0.450  0.450  0.096  0.888
  Li4050  Li1+  0.650  0.250  0.896  0.888
  Li1155  Li1+  0.050  0.850  0.932  0.888
  Li1644  Li1+  0.250  0.250  0.950  0.889
  Li5828  Li1+  0.950  0.950  0.322  0.889
  Li113  Li1+  0.150  0.150  0.486  0.889
  Li3564  Li1+  0.450  0.850  0.950  0.889
  Li4236  Li1+  0.650  0.450  0.750  0.889
  Li2380  Li1+  0.246  0.846  0.806  0.889
  Li2697  Li1+  0.450  0.250  0.278  0.889
  Li5970  Li1+  0.850  0.850  0.896  0.890
  Li3668  Li1+  0.750  0.150  0.322  0.890
  Li2859  Li1+  0.550  0.350  0.996  0.890
  Li5383  Li1+  0.946  0.550  0.450  0.890
  Li290  Li1+  0.150  0.350  0.341  0.890
  Li3363  Li1+  0.450  0.850  0.132  0.890
  Li3075  Li1+  0.450  0.450  0.932  0.891
  Li4182  Li1+  0.646  0.446  0.587  0.891
  Li1260  Li1+  0.250  0.050  0.350  0.891
  Li4347  Li1+  0.750  0.750  0.196  0.891
  Li4063  Li1+  0.700  0.300  0.882  0.891
  Li5762  Li1+  0.950  0.950  0.141  0.891
  Li5143  Li1+  0.946  0.350  0.450  0.891
  Li3345  Li1+  0.550  0.750  0.959  0.891
  Li1949  Li1+  0.350  0.746  0.014  0.891
  Li4540  Li1+  0.646  0.646  0.806  0.891
  Li4850  Li1+  0.950  0.150  0.341  0.892
  Li5617  Li1+  0.846  0.646  0.424  0.892
  Li1153  Li1+  0.046  0.846  0.824  0.892
  Li3466  Li1+  0.550  0.950  0.504  0.892
  Li2097  Li1+  0.350  0.750  0.759  0.892
  Li1348  Li1+  0.350  0.150  0.777  0.892
  Li4754  Li1+  0.750  0.950  0.941  0.892
  Li5094  Li1+  0.846  0.246  0.387  0.892
  Li4324  Li1+  0.750  0.750  0.177  0.892
  Li5096  Li1+  0.850  0.250  0.259  0.893
  Li4405  Li1+  0.700  0.700  0.373  0.893
  Li3993  Li1+  0.650  0.250  0.678  0.893
  Li880  Li1+  0.150  0.750  0.668  0.893
  Li5626  Li1+  0.950  0.750  0.504  0.893
  Li3458  Li1+  0.550  0.950  0.541  0.894
  Li737  Li1+  0.150  0.750  0.086  0.894
  Li33  Li1+  0.150  0.150  0.159  0.894
  Li3895  Li1+  0.746  0.350  0.250  0.894
  Li3090  Li1+  0.450  0.450  0.896  0.894
  Li580  Li1+  0.150  0.550  0.577  0.895
  Li532  Li1+  0.150  0.550  0.377  0.895
  Li490  Li1+  0.150  0.550  0.104  0.895
  Li1497  Li1+  0.250  0.250  0.278  0.895
  Li450  Li1+  0.050  0.250  0.896  0.895
  Li1068  Li1+  0.050  0.850  0.550  0.895
  Li1703  Li1+  0.296  0.500  0.046  0.895
  Li4305  Li1+  0.750  0.550  0.959  0.895
  Li194  Li1+  0.150  0.150  0.941  0.896
  Li5765  Li1+  0.850  0.850  0.168  0.896
  Li2811  Li1+  0.550  0.350  0.796  0.896
  Li2835  Li1+  0.450  0.250  0.932  0.896
  Li3746  Li1+  0.750  0.150  0.741  0.896
  Li5766  Li1+  0.846  0.846  0.187  0.896
  Li4811  Li1+  0.850  0.050  0.114  0.897
  Li1836  Li1+  0.250  0.450  0.750  0.897
  Li2562  Li1+  0.450  0.050  0.696  0.897
  Li1882  Li1+  0.350  0.550  0.904  0.897
  Li4912  Li1+  0.950  0.150  0.468  0.897
  Li4100  Li1+  0.750  0.550  0.122  0.897
  Li964  Li1+  0.150  0.950  0.177  0.897
  Li3148  Li1+  0.446  0.646  0.006  0.897
  Li1412  Li1+  0.350  0.150  0.922  0.898
  Li1697  Li1+  0.350  0.550  0.086  0.898
  Li5193  Li1+  0.850  0.250  0.678  0.898
  Li2572  Li1+  0.446  0.046  0.606  0.898
  Li5046  Li1+  0.846  0.246  0.187  0.898
  Li2844  Li1+  0.450  0.250  0.950  0.898
  Li5724  Li1+  0.850  0.650  0.950  0.899
  Li4993  Li1+  0.846  0.046  0.824  0.899
  Li3863  Li1+  0.696  0.300  0.046  0.899
  Li2985  Li1+  0.450  0.450  0.478  0.899
  Li5783  Li1+  0.896  0.900  0.046  0.900
  Li1133  Li1+  0.150  0.946  0.614  0.900
  Li337  Li1+  0.046  0.246  0.424  0.900
  Li3946  Li1+  0.750  0.350  0.504  0.900
  Li5812  Li1+  0.950  0.950  0.377  0.900
  Li4228  Li1+  0.750  0.550  0.777  0.900
  Li4253  Li1+  0.750  0.546  0.614  0.900
  Li5481  Li1+  0.850  0.450  0.878  0.900
  Li2355  Li1+  0.250  0.850  0.932  0.900
  Li1346  Li1+  0.350  0.150  0.741  0.900
  Li5768  Li1+  0.850  0.850  0.059  0.900
  Li1463  Li1+  0.296  0.300  0.046  0.900
  Li3524  Li1+  0.550  0.950  0.722  0.900
  Li4042  Li1+  0.750  0.350  0.904  0.900
  Li1889  Li1+  0.350  0.550  0.886  0.900
  Li18  Li1+  0.050  0.050  0.096  0.901
  Li55  Li1+  0.146  0.150  0.250  0.901
  Li20  Li1+  0.150  0.150  0.122  0.901
  Li4276  Li1+  0.750  0.550  0.977  0.901
  Li2259  Li1+  0.250  0.850  0.532  0.901
  Li4379  Li1+  0.650  0.650  0.314  0.901
  Li2074  Li1+  0.350  0.750  0.704  0.902
  Li58  Li1+  0.150  0.150  0.304  0.902
  Li3556  Li1+  0.550  0.950  0.977  0.902
  Li2168  Li1+  0.250  0.850  0.059  0.902
  Li3986  Li1+  0.750  0.350  0.741  0.903
  Li2193  Li1+  0.350  0.950  0.159  0.903
  Li1857  Li1+  0.350  0.550  0.759  0.903
  Li3129  Li1+  0.450  0.650  0.078  0.903
  Li5954  Li1+  0.950  0.950  0.941  0.903
  Li2070  Li1+  0.246  0.646  0.787  0.903
  Li1613  Li1+  0.350  0.346  0.614  0.903
  Li153  Li1+  0.050  0.050  0.678  0.904
  Li2272  Li1+  0.350  0.950  0.468  0.904
  Li2668  Li1+  0.446  0.246  0.006  0.904
  Li1302  Li1+  0.246  0.046  0.587  0.904
  Li1552  Li1+  0.350  0.350  0.468  0.904
  Li5620  Li1+  0.950  0.750  0.577  0.904
  Li3340  Li1+  0.446  0.646  0.806  0.905
  Li1353  Li1+  0.250  0.050  0.678  0.905
  Li1347  Li1+  0.250  0.050  0.732  0.905
  Li4563  Li1+  0.650  0.850  0.132  0.905
  Li4714  Li1+  0.750  0.950  0.704  0.906
  Li881  Li1+  0.150  0.750  0.686  0.906
  Li2019  Li1+  0.250  0.650  0.532  0.906
  Li4545  Li1+  0.750  0.750  0.959  0.906
  Li2794  Li1+  0.550  0.350  0.704  0.906
  Li2817  Li1+  0.550  0.350  0.759  0.907
  Li5394  Li1+  0.850  0.450  0.496  0.907
  Li2130  Li1+  0.250  0.650  0.896  0.907
  Li2892  Li1+  0.450  0.450  0.150  0.908
  Li4818  Li1+  0.850  0.050  0.096  0.908
  Li4970  Li1+  0.850  0.046  0.642  0.908
  Li3842  Li1+  0.750  0.350  0.141  0.908
  Li3092  Li1+  0.550  0.550  0.922  0.908
  Li458  Li1+  0.050  0.246  0.842  0.908
  Li4590  Li1+  0.696  0.896  0.010  0.909
  Li4103  Li1+  0.696  0.500  0.046  0.909
  Li1610  Li1+  0.250  0.246  0.642  0.909
  Li963  Li1+  0.050  0.850  0.132  0.909
  Li915  Li1+  0.050  0.650  0.932  0.909
  Li1319  Li1+  0.296  0.100  0.446  0.909
  Li3132  Li1+  0.450  0.650  0.150  0.909
  Li3892  Li1+  0.750  0.350  0.377  0.910
  Li4465  Li1+  0.646  0.646  0.624  0.910
  Li5382  Li1+  0.846  0.446  0.587  0.910
  Li1713  Li1+  0.350  0.550  0.159  0.910
  Li5627  Li1+  0.850  0.650  0.514  0.910
  Li2411  Li1+  0.450  0.050  0.114  0.911
  Li2135  Li1+  0.296  0.700  0.846  0.911
  Li2306  Li1+  0.350  0.950  0.741  0.911
  Li736  Li1+  0.150  0.750  0.068  0.911
  Li2619  Li1+  0.550  0.150  0.996  0.911
  Li2412  Li1+  0.450  0.050  0.150  0.912
  Li2026  Li1+  0.350  0.750  0.504  0.912
  Li3954  Li1+  0.650  0.250  0.496  0.912
  Li1692  Li1+  0.250  0.450  0.150  0.912
  Li5872  Li1+  0.950  0.950  0.468  0.913
  Li2312  Li1+  0.250  0.850  0.659  0.913
  Li5238  Li1+  0.846  0.246  0.987  0.913
  Li3088  Li1+  0.550  0.550  0.868  0.913
  Li2481  Li1+  0.550  0.150  0.359  0.913
  Li2076  Li1+  0.250  0.650  0.750  0.913
  Li3217  Li1+  0.446  0.646  0.424  0.913
  Li4876  Li1+  0.846  0.046  0.206  0.913
  Li836  Li1+  0.150  0.750  0.522  0.913
  Li365  Li1+  0.150  0.346  0.414  0.914
  Li4662  Li1+  0.646  0.846  0.587  0.914
  Li2117  Li1+  0.250  0.650  0.968  0.914
  Li3420  Li1+  0.450  0.850  0.350  0.914
  Li972  Li1+  0.050  0.850  0.150  0.914
  Li822  Li1+  0.046  0.646  0.587  0.914
  Li5202  Li1+  0.850  0.250  0.696  0.914
  Li1796  Li1+  0.350  0.550  0.522  0.914
  Li945  Li1+  0.150  0.750  0.959  0.914
  Li5377  Li1+  0.846  0.446  0.424  0.914
  Li5577  Li1+  0.850  0.650  0.278  0.915
  Li3218  Li1+  0.550  0.750  0.541  0.915
  Li3942  Li1+  0.646  0.246  0.587  0.915
  Li5538  Li1+  0.850  0.650  0.096  0.915
  Li722  Li1+  0.150  0.750  0.141  0.915
  Li551  Li1+  0.096  0.500  0.246  0.915
  Li4475  Li1+  0.650  0.650  0.714  0.916
  Li4252  Li1+  0.646  0.446  0.606  0.916
  Li4046  Li1+  0.700  0.300  0.864  0.916
  Li1781  Li1+  0.250  0.450  0.568  0.916
  Li4778  Li1+  0.650  0.846  0.842  0.916
  Li2498  Li1+  0.550  0.150  0.541  0.916
  Li3232  Li1+  0.550  0.750  0.468  0.917
  Li27  Li1+  0.150  0.150  0.196  0.917
  Li2123  Li1+  0.250  0.650  0.914  0.917
  Li4004  Li1+  0.750  0.350  0.722  0.917
  Li5909  Li1+  0.850  0.850  0.768  0.917
  Li369  Li1+  0.150  0.350  0.559  0.917
  Li3419  Li1+  0.450  0.850  0.314  0.917
  Li3140  Li1+  0.550  0.750  0.122  0.917
  Li2708  Li1+  0.550  0.350  0.322  0.918
  Li2786  Li1+  0.550  0.350  0.741  0.918
  Li5763  Li1+  0.850  0.850  0.132  0.918
  Li2706  Li1+  0.450  0.250  0.296  0.918
  Li4763  Li1+  0.650  0.850  0.914  0.919
  Li962  Li1+  0.150  0.950  0.141  0.919
  Li5144  Li1+  0.850  0.250  0.459  0.919
  Li5003  Li1+  0.850  0.050  0.914  0.919
  Li4864  Li1+  0.950  0.150  0.268  0.919
  Li2787  Li1+  0.450  0.250  0.732  0.920
  Li1592  Li1+  0.250  0.250  0.659  0.920
  Li1089  Li1+  0.150  0.950  0.559  0.920
  Li3992  Li1+  0.650  0.250  0.659  0.920
  Li603  Li1+  0.150  0.550  0.596  0.920
  Li5716  Li1+  0.950  0.750  0.977  0.920
  Li2502  Li1+  0.446  0.046  0.587  0.920
  Li4484  Li1+  0.750  0.750  0.722  0.921
  Li2049  Li1+  0.350  0.750  0.559  0.921
  Li3244  Li1+  0.446  0.646  0.406  0.921
  Li4089  Li1+  0.650  0.450  0.078  0.921
  Li3729  Li1+  0.750  0.150  0.559  0.921
  Li1611  Li1+  0.350  0.350  0.796  0.921
  Li971  Li1+  0.050  0.850  0.114  0.921
  Li385  Li1+  0.046  0.246  0.624  0.921
  Li394  Li1+  0.150  0.350  0.704  0.922
  Li3850  Li1+  0.750  0.350  0.104  0.922
  Li357  Li1+  0.150  0.346  0.432  0.922
  Li597  Li1+  0.150  0.546  0.432  0.922
  Li4010  Li1+  0.650  0.246  0.642  0.922
  Li4902  Li1+  0.846  0.046  0.587  0.922
  Li1461  Li1+  0.350  0.346  0.032  0.922
  Li402  Li1+  0.050  0.250  0.696  0.922
  Li1833  Li1+  0.250  0.450  0.678  0.923
  Li3268  Li1+  0.550  0.750  0.777  0.923
  Li4661  Li1+  0.650  0.850  0.568  0.923
  Li3772  Li1+  0.646  0.046  0.606  0.923
  Li1943  Li1+  0.296  0.700  0.046  0.923
  Li101  Li1+  0.050  0.050  0.568  0.923
  Li1131  Li1+  0.150  0.950  0.796  0.923
  Li3665  Li1+  0.750  0.150  0.286  0.923
  Li2516  Li1+  0.550  0.150  0.522  0.923
  Li753  Li1+  0.150  0.750  0.159  0.923
  Li4907  Li1+  0.850  0.050  0.514  0.923
  Li5138  Li1+  0.950  0.350  0.541  0.923
  Li5429  Li1+  0.850  0.450  0.768  0.924
  Li3987  Li1+  0.650  0.250  0.732  0.924
  Li4251  Li1+  0.750  0.550  0.796  0.924
  Li4676  Li1+  0.750  0.950  0.522  0.924
  Li2769  Li1+  0.550  0.350  0.559  0.924
  Li587  Li1+  0.050  0.450  0.514  0.924
  Li537  Li1+  0.050  0.450  0.278  0.925
  Li3896  Li1+  0.650  0.250  0.259  0.925
  Li4473  Li1+  0.650  0.650  0.678  0.925
  Li2215  Li1+  0.346  0.950  0.250  0.925
  Li5633  Li1+  0.950  0.750  0.486  0.925
  Li1659  Li1+  0.350  0.350  0.996  0.925
  Li1203  Li1+  0.250  0.050  0.132  0.925
  Li1223  Li1+  0.296  0.100  0.046  0.926
  Li4444  Li1+  0.646  0.646  0.406  0.926
  Li5301  Li1+  0.950  0.546  0.032  0.926
  Li3698  Li1+  0.750  0.150  0.541  0.926
  Li3416  Li1+  0.450  0.850  0.259  0.926
  Li4273  Li1+  0.646  0.446  0.824  0.927
  Li1545  Li1+  0.250  0.250  0.478  0.927
  Li4871  Li1+  0.896  0.100  0.246  0.927
  Li2021  Li1+  0.250  0.650  0.568  0.927
  Li3540  Li1+  0.496  0.896  0.628  0.927
  Li969  Li1+  0.050  0.850  0.078  0.927
  Li2401  Li1+  0.446  0.046  0.024  0.927
  Li2693  Li1+  0.450  0.250  0.368  0.927
  Li5482  Li1+  0.950  0.550  0.904  0.927
  Li390  Li1+  0.046  0.246  0.787  0.928
  Li4919  Li1+  0.896  0.100  0.446  0.928
  Li4533  Li1+  0.750  0.746  0.832  0.928
  Li2992  Li1+  0.550  0.550  0.468  0.928
  Li1643  Li1+  0.250  0.250  0.914  0.928
  Li2167  Li1+  0.346  0.950  0.050  0.928
  Li2804  Li1+  0.550  0.350  0.722  0.928
  Li3666  Li1+  0.650  0.050  0.296  0.928
  Li2938  Li1+  0.550  0.550  0.304  0.929
  Li5811  Li1+  0.850  0.850  0.332  0.929
  Li700  Li1+  0.046  0.446  0.806  0.929
  Li4240  Li1+  0.750  0.550  0.668  0.929
  Li4764  Li1+  0.650  0.850  0.950  0.929
  Li1170  Li1+  0.050  0.850  0.896  0.929
  Li789  Li1+  0.150  0.746  0.232  0.929
  Li4521  Li1+  0.650  0.650  0.878  0.930
  Li5684  Li1+  0.950  0.750  0.722  0.930
  Li1793  Li1+  0.350  0.550  0.486  0.930
  Li5866  Li1+  0.950  0.950  0.504  0.930
  Li4183  Li1+  0.746  0.550  0.450  0.930
  Li2813  Li1+  0.550  0.346  0.614  0.931
  Li3511  Li1+  0.546  0.950  0.650  0.931
  Li2933  Li1+  0.450  0.450  0.368  0.931
  Li4389  Li1+  0.750  0.746  0.232  0.931
  Li779  Li1+  0.050  0.650  0.314  0.931
  Li3751  Li1+  0.746  0.150  0.650  0.932
  Li5436  Li1+  0.850  0.450  0.750  0.932
  Li5591  Li1+  0.896  0.700  0.246  0.932
  Li4826  Li1+  0.850  0.046  0.042  0.932
  Li3323  Li1+  0.450  0.650  0.914  0.932
  Li5004  Li1+  0.850  0.050  0.950  0.932
  Li4732  Li1+  0.646  0.846  0.606  0.932
  Li5930  Li1+  0.850  0.846  0.642  0.932
  Li540  Li1+  0.050  0.450  0.350  0.932
  Li4576  Li1+  0.750  0.950  0.068  0.932
  Li5780  Li1+  0.950  0.950  0.122  0.932
  Li2889  Li1+  0.450  0.450  0.078  0.932
  Li1828  Li1+  0.350  0.550  0.777  0.933
  Li938  Li1+  0.050  0.646  0.842  0.933
  Li4571  Li1+  0.650  0.850  0.114  0.933
  Li3952  Li1+  0.750  0.350  0.468  0.933
  Li4482  Li1+  0.650  0.650  0.696  0.933
  Li4532  Li1+  0.750  0.750  0.922  0.933
  Li4609  Li1+  0.646  0.846  0.224  0.933
  Li5044  Li1+  0.950  0.350  0.177  0.933
  Li3291  Li1+  0.550  0.750  0.796  0.933
  Li1058  Li1+  0.150  0.950  0.541  0.934
  Li294  Li1+  0.046  0.246  0.387  0.934
  Li5733  Li1+  0.950  0.746  0.832  0.934
  Li258  Li1+  0.050  0.250  0.096  0.934
  Li4134  Li1+  0.646  0.446  0.387  0.934
  Li4775  Li1+  0.696  0.900  0.846  0.934
  Li2714  Li1+  0.450  0.246  0.242  0.934
  Li3612  Li1+  0.650  0.050  0.150  0.934
  Li1682  Li1+  0.350  0.550  0.141  0.934
  Li5674  Li1+  0.950  0.750  0.704  0.935
  Li1458  Li1+  0.250  0.250  0.096  0.935
  Li4232  Li1+  0.650  0.450  0.659  0.935
  Li5244  Li1+  0.850  0.250  0.950  0.935
  Li1494  Li1+  0.246  0.246  0.387  0.935
  Li627  Li1+  0.050  0.450  0.732  0.935
  Li5680  Li1+  0.950  0.750  0.668  0.935
  Li1212  Li1+  0.250  0.050  0.150  0.935
  Li3328  Li1+  0.550  0.750  0.868  0.936
  Li5569  Li1+  0.846  0.646  0.224  0.936
  Li146  Li1+  0.150  0.150  0.741  0.936
  Li3830  Li1+  0.700  0.100  0.900  0.936
  Li3806  Li1+  0.700  0.100  0.864  0.936
  Li791  Li1+  0.096  0.700  0.246  0.936
  Li3051  Li1+  0.550  0.550  0.796  0.936
  Li723  Li1+  0.050  0.650  0.132  0.936
  Li492  Li1+  0.050  0.450  0.150  0.936
  Li5248  Li1+  0.950  0.350  0.868  0.936
  Li170  Li1+  0.050  0.046  0.642  0.936
  Li740  Li1+  0.150  0.750  0.122  0.936
  Li1892  Li1+  0.350  0.550  0.922  0.936
  Li4686  Li1+  0.696  0.896  0.410  0.937
  Li2458  Li1+  0.550  0.150  0.304  0.937
  Li833  Li1+  0.150  0.750  0.486  0.937
  Li4277  Li1+  0.650  0.450  0.968  0.937
  Li3128  Li1+  0.450  0.650  0.059  0.937
  Li4564  Li1+  0.750  0.950  0.177  0.937
  Li4626  Li1+  0.650  0.850  0.296  0.937
  Li1106  Li1+  0.150  0.950  0.741  0.937
  Li293  Li1+  0.050  0.250  0.368  0.937
  Li3761  Li1+  0.750  0.150  0.686  0.938
  Li1733  Li1+  0.250  0.450  0.368  0.938
  Li2265  Li1+  0.250  0.850  0.478  0.938
  Li5051  Li1+  0.850  0.250  0.114  0.938
  Li4620  Li1+  0.650  0.850  0.350  0.938
  Li5955  Li1+  0.850  0.850  0.932  0.938
  Li2274  Li1+  0.250  0.850  0.496  0.938
  Li3752  Li1+  0.650  0.050  0.659  0.938
  Li594  Li1+  0.050  0.450  0.496  0.938
  Li2834  Li1+  0.550  0.350  0.941  0.938
  Li2451  Li1+  0.450  0.050  0.332  0.938
  Li4299  Li1+  0.750  0.550  0.996  0.938
  Li2996  Li1+  0.550  0.550  0.522  0.938
  Li5434  Li1+  0.950  0.550  0.704  0.938
  Li834  Li1+  0.050  0.650  0.496  0.938
  Li1930  Li1+  0.350  0.750  0.104  0.939
  Li2263  Li1+  0.346  0.950  0.450  0.939
  Li503  Li1+  0.096  0.500  0.046  0.940
  Li4689  Li1+  0.750  0.950  0.559  0.940
  Li3364  Li1+  0.550  0.950  0.177  0.940
  Li2986  Li1+  0.550  0.550  0.504  0.940
  Li4295  Li1+  0.696  0.500  0.846  0.940
  Li3418  Li1+  0.550  0.950  0.304  0.940
  Li4187  Li1+  0.650  0.450  0.514  0.940
  Li1805  Li1+  0.350  0.546  0.414  0.940
  Li393  Li1+  0.050  0.250  0.678  0.941
  Li150  Li1+  0.046  0.046  0.787  0.941
  Li4391  Li1+  0.696  0.700  0.246  0.941
  Li3365  Li1+  0.450  0.850  0.168  0.941
  Li3459  Li1+  0.450  0.850  0.532  0.941
  Li3914  Li1+  0.650  0.246  0.242  0.941
  Li5841  Li1+  0.950  0.950  0.359  0.941
  Li832  Li1+  0.150  0.750  0.468  0.941
  Li1595  Li1+  0.250  0.250  0.714  0.941
  Li2180  Li1+  0.350  0.950  0.122  0.942
  Li2091  Li1+  0.350  0.750  0.796  0.942
  Li4852  Li1+  0.950  0.150  0.377  0.942
  Li1251  Li1+  0.250  0.050  0.332  0.942
  Li3717  Li1+  0.750  0.146  0.432  0.942
  Li875  Li1+  0.050  0.650  0.714  0.942
  Li3760  Li1+  0.750  0.150  0.668  0.942
  Li652  Li1+  0.046  0.446  0.606  0.942
  Li4946  Li1+  0.950  0.150  0.741  0.942
  Li1214  Li1+  0.300  0.100  0.064  0.943
  Li465  Li1+  0.150  0.350  0.959  0.943
  Li1548  Li1+  0.250  0.250  0.550  0.943
  Li4329  Li1+  0.650  0.650  0.078  0.943
  Li3472  Li1+  0.550  0.950  0.468  0.943
  Li2884  Li1+  0.550  0.550  0.177  0.943
  Li3651  Li1+  0.650  0.050  0.332  0.943
  Li4900  Li1+  0.950  0.150  0.577  0.943
  Li3765  Li1+  0.750  0.146  0.632  0.943
  Li3473  Li1+  0.550  0.950  0.486  0.943
  Li1451  Li1+  0.250  0.250  0.114  0.943
  Li5092  Li1+  0.950  0.350  0.377  0.943
  Li1121  Li1+  0.150  0.950  0.686  0.944
  Li1115  Li1+  0.050  0.850  0.714  0.944
  Li3937  Li1+  0.646  0.246  0.424  0.944
  Li5532  Li1+  0.850  0.650  0.150  0.944
  Li2001  Li1+  0.350  0.750  0.359  0.944
  Li3095  Li1+  0.496  0.500  0.846  0.944
  Li5489  Li1+  0.950  0.550  0.886  0.944
  Li2577  Li1+  0.550  0.150  0.759  0.944
  Li1404  Li1+  0.250  0.050  0.950  0.944
  Li196  Li1+  0.150  0.150  0.977  0.944
  Li5196  Li1+  0.850  0.250  0.750  0.944
  Li2268  Li1+  0.250  0.850  0.550  0.945
  Li3370  Li1+  0.550  0.950  0.104  0.945
  Li1298  Li1+  0.350  0.150  0.541  0.945
  Li1460  Li1+  0.350  0.350  0.122  0.945
  Li444  Li1+  0.050  0.250  0.950  0.945
  Li5717  Li1+  0.850  0.650  0.968  0.945
  Li3676  Li1+  0.646  0.046  0.206  0.946
  Li4705  Li1+  0.646  0.846  0.624  0.946
  Li2545  Li1+  0.446  0.046  0.624  0.946
  Li1489  Li1+  0.246  0.246  0.224  0.946
  Li3484  Li1+  0.446  0.846  0.406  0.946
  Li3274  Li1+  0.550  0.750  0.704  0.946
  Li1105  Li1+  0.046  0.846  0.624  0.946
  Li452  Li1+  0.150  0.350  0.922  0.946
  Li2162  Li1+  0.350  0.950  0.141  0.946
  Li148  Li1+  0.150  0.150  0.777  0.947
  Li2226  Li1+  0.250  0.850  0.296  0.947
  Li400  Li1+  0.150  0.350  0.668  0.947
  Li5924  Li1+  0.950  0.950  0.722  0.947
  Li3945  Li1+  0.650  0.250  0.478  0.947
  Li396  Li1+  0.050  0.250  0.750  0.947
  Li5057  Li1+  0.950  0.350  0.086  0.948
  Li4588  Li1+  0.646  0.846  0.006  0.948
  Li1683  Li1+  0.250  0.450  0.132  0.948
  Li1452  Li1+  0.250  0.250  0.150  0.948
  Li823  Li1+  0.146  0.750  0.450  0.948
  Li4820  Li1+  0.950  0.150  0.122  0.948
  Li2228  Li1+  0.350  0.950  0.322  0.948
  Li4380  Li1+  0.650  0.650  0.350  0.948
  Li3369  Li1+  0.450  0.850  0.078  0.948
  Li1356  Li1+  0.250  0.050  0.750  0.948
  Li298  Li1+  0.150  0.350  0.304  0.948
  Li4337  Li1+  0.750  0.750  0.086  0.949
  Li3413  Li1+  0.450  0.850  0.368  0.949
  Li4513  Li1+  0.646  0.646  0.824  0.949
  Li5956  Li1+  0.950  0.950  0.977  0.949
  Li5474  Li1+  0.950  0.550  0.941  0.949
  Li321  Li1+  0.150  0.350  0.359  0.949
  Li5210  Li1+  0.850  0.246  0.642  0.949
  Li4948  Li1+  0.950  0.150  0.777  0.949
  Li3122  Li1+  0.550  0.750  0.141  0.949
  Li2615  Li1+  0.496  0.100  0.846  0.949
  Li5235  Li1+  0.850  0.250  0.932  0.949
  Li2641  Li1+  0.446  0.246  0.024  0.950
  Li315  Li1+  0.150  0.350  0.396  0.950
  Li1802  Li1+  0.250  0.446  0.442  0.950
  Li582  Li1+  0.046  0.446  0.587  0.950
  Li1652  Li1+  0.350  0.350  0.922  0.950
  Li4467  Li1+  0.650  0.650  0.732  0.950
  Li3387  Li1+  0.550  0.950  0.196  0.950
  Li2216  Li1+  0.250  0.850  0.259  0.950
  Li5525  Li1+  0.850  0.650  0.168  0.951
  Li3605  Li1+  0.650  0.050  0.168  0.951
  Li4753  Li1+  0.646  0.846  0.824  0.951
  Li5156  Li1+  0.950  0.350  0.522  0.951
  Li940  Li1+  0.046  0.646  0.806  0.951
  Li5529  Li1+  0.850  0.650  0.078  0.951
  Li2752  Li1+  0.550  0.350  0.468  0.951
  Li4378  Li1+  0.750  0.750  0.304  0.952
  Li1700  Li1+  0.350  0.550  0.122  0.952
  Li5622  Li1+  0.846  0.646  0.587  0.952
  Li1252  Li1+  0.350  0.150  0.377  0.952
  Li2657  Li1+  0.550  0.350  0.086  0.952
  Li4341  Li1+  0.750  0.746  0.032  0.952
  Li2469  Li1+  0.550  0.146  0.232  0.952
  Li5116  Li1+  0.846  0.246  0.206  0.952
  Li4340  Li1+  0.750  0.750  0.122  0.953
  Li828  Li1+  0.050  0.650  0.550  0.953
  Li3996  Li1+  0.650  0.250  0.750  0.953
  Li75  Li1+  0.150  0.150  0.396  0.953
  Li5669  Li1+  0.850  0.650  0.768  0.953
  Li1394  Li1+  0.350  0.150  0.941  0.953
  Li3588  Li1+  0.496  0.896  0.828  0.953
  Li3745  Li1+  0.646  0.046  0.624  0.953
  Li108  Li1+  0.050  0.050  0.550  0.953
  Li2863  Li1+  0.500  0.300  0.882  0.953
  Li4711  Li1+  0.746  0.950  0.650  0.953
  Li1365  Li1+  0.350  0.146  0.632  0.954
  Li2322  Li1+  0.250  0.850  0.696  0.954
  Li52  Li1+  0.150  0.150  0.377  0.954
  Li2805  Li1+  0.550  0.346  0.632  0.954
  Li4756  Li1+  0.750  0.950  0.977  0.954
  Li1842  Li1+  0.250  0.450  0.696  0.954
  Li827  Li1+  0.050  0.650  0.514  0.954
  Li1281  Li1+  0.350  0.150  0.359  0.955
  Li2517  Li1+  0.550  0.146  0.432  0.955
  Li1314  Li1+  0.250  0.050  0.496  0.955
  Li1923  Li1+  0.250  0.650  0.132  0.955
  Li1074  Li1+  0.050  0.850  0.496  0.955
  Li2785  Li1+  0.446  0.246  0.624  0.955
  Li5384  Li1+  0.850  0.450  0.459  0.955
  Li2236  Li1+  0.246  0.846  0.206  0.956
  Li4905  Li1+  0.850  0.050  0.478  0.956
  Li4757  Li1+  0.650  0.850  0.968  0.956
  Li5920  Li1+  0.950  0.950  0.668  0.956
  Li404  Li1+  0.150  0.350  0.722  0.956
  Li437  Li1+  0.050  0.250  0.968  0.956
  Li97  Li1+  0.046  0.046  0.424  0.956
  Li2791  Li1+  0.546  0.350  0.650  0.956
  Li4179  Li1+  0.650  0.450  0.532  0.956
  Li1230  Li1+  0.296  0.096  0.010  0.956
  Li5668  Li1+  0.950  0.750  0.777  0.956
  Li3580  Li1+  0.446  0.846  0.806  0.957
  Li3188  Li1+  0.550  0.750  0.322  0.957
  Li2698  Li1+  0.550  0.350  0.304  0.957
  Li3201  Li1+  0.550  0.750  0.359  0.957
  Li5985  Li1+  0.950  0.950  0.959  0.957
  Li4901  Li1+  0.850  0.050  0.568  0.957
  Li3032  Li1+  0.450  0.450  0.659  0.957
  Li5239  Li1+  0.946  0.350  0.850  0.957
  Li2643  Li1+  0.450  0.250  0.132  0.957
  Li3233  Li1+  0.550  0.750  0.486  0.957
  Li4924  Li1+  0.846  0.046  0.406  0.958
  Li602  Li1+  0.050  0.446  0.442  0.958
  Li2556  Li1+  0.450  0.050  0.750  0.958
  Li4569  Li1+  0.650  0.850  0.078  0.958
  Li1782  Li1+  0.246  0.446  0.587  0.958
  Li2571  Li1+  0.550  0.150  0.796  0.959
  Li1852  Li1+  0.246  0.446  0.606  0.959
  Li4720  Li1+  0.750  0.950  0.668  0.959
  Li2330  Li1+  0.250  0.846  0.642  0.959
  Li3034  Li1+  0.550  0.550  0.704  0.959
  Li4809  Li1+  0.850  0.050  0.078  0.959
  Li705  Li1+  0.150  0.550  0.959  0.959
  Li4866  Li1+  0.850  0.050  0.296  0.959
  Li4761  Li1+  0.650  0.850  0.878  0.959
  Li4470  Li1+  0.646  0.646  0.787  0.959
  Li1370  Li1+  0.250  0.046  0.642  0.959
  Li5441  Li1+  0.950  0.550  0.686  0.960
  Li4953  Li1+  0.850  0.050  0.678  0.960
  Li506  Li1+  0.050  0.446  0.042  0.960
  Li3527  Li1+  0.496  0.900  0.646  0.960
  Li5284  Li1+  0.950  0.550  0.177  0.960
  Li5292  Li1+  0.850  0.450  0.150  0.960
  Li4133  Li1+  0.650  0.450  0.368  0.960
  Li5298  Li1+  0.850  0.450  0.096  0.961
  Li125  Li1+  0.150  0.146  0.414  0.961
  Li435  Li1+  0.050  0.250  0.932  0.961
  Li3081  Li1+  0.450  0.450  0.878  0.961
  Li3762  Li1+  0.650  0.050  0.696  0.962
  Li2163  Li1+  0.250  0.850  0.132  0.962
  Li2118  Li1+  0.246  0.646  0.987  0.962
  Li2460  Li1+  0.450  0.050  0.350  0.962
  Li4951  Li1+  0.946  0.150  0.650  0.962
  Li5200  Li1+  0.950  0.350  0.668  0.962
  Li5906  Li1+  0.950  0.950  0.741  0.962
  Li3267  Li1+  0.450  0.650  0.732  0.962
  Li3093  Li1+  0.550  0.546  0.832  0.962
  Li4439  Li1+  0.696  0.700  0.446  0.962
  Li693  Li1+  0.150  0.546  0.832  0.963
  Li2603  Li1+  0.450  0.050  0.914  0.963
  Li1840  Li1+  0.350  0.550  0.668  0.963
  Li641  Li1+  0.150  0.550  0.686  0.963
  Li4289  Li1+  0.750  0.550  0.886  0.963
  Li207  Li1+  0.100  0.100  0.991  0.963
  Li3226  Li1+  0.550  0.750  0.504  0.963
  Li4898  Li1+  0.950  0.150  0.541  0.964
  Li3796  Li1+  0.750  0.150  0.977  0.964
  Li4388  Li1+  0.750  0.750  0.322  0.964
  Li362  Li1+  0.050  0.246  0.442  0.964
  Li3322  Li1+  0.550  0.750  0.904  0.964
  Li2931  Li1+  0.450  0.450  0.332  0.964
  Li3611  Li1+  0.650  0.050  0.114  0.964
  Li914  Li1+  0.150  0.750  0.941  0.964
  Li4235  Li1+  0.650  0.450  0.714  0.965
  Li916  Li1+  0.150  0.750  0.977  0.965
  Li630  Li1+  0.046  0.446  0.787  0.965
  Li629  Li1+  0.050  0.450  0.768  0.965
  Li1564  Li1+  0.246  0.246  0.406  0.965
  Li1739  Li1+  0.250  0.450  0.314  0.965
  Li5793  Li1+  0.950  0.950  0.159  0.965
  Li2075  Li1+  0.250  0.650  0.714  0.965
  Li689  Li1+  0.150  0.550  0.886  0.965
  Li2699  Li1+  0.450  0.250  0.314  0.966
  Li4132  Li1+  0.750  0.550  0.377  0.966
  Li4421  Li1+  0.650  0.650  0.568  0.966
  Li341  Li1+  0.050  0.250  0.568  0.966
  Li2499  Li1+  0.450  0.050  0.532  0.966
  Li212  Li1+  0.150  0.150  0.922  0.966
  Li391  Li1+  0.146  0.350  0.650  0.967
  Li1878  Li1+  0.246  0.446  0.987  0.967
  Li3377  Li1+  0.550  0.950  0.086  0.967
  Li4960  Li1+  0.950  0.150  0.668  0.967
  Li5060  Li1+  0.950  0.350  0.122  0.967
  Li3324  Li1+  0.450  0.650  0.950  0.967
  Li1372  Li1+  0.246  0.046  0.606  0.967
  Li5447  Li1+  0.896  0.500  0.646  0.967
  Li3908  Li1+  0.750  0.350  0.322  0.967
  Li680  Li1+  0.050  0.450  0.859  0.967
  Li3681  Li1+  0.750  0.150  0.359  0.967
  Li225  Li1+  0.150  0.150  0.959  0.968
  Li5457  Li1+  0.950  0.550  0.759  0.968
  Li4036  Li1+  0.750  0.350  0.977  0.968
  Li3712  Li1+  0.750  0.150  0.468  0.968
  Li3124  Li1+  0.550  0.750  0.177  0.968
  Li5379  Li1+  0.850  0.450  0.532  0.968
  Li2418  Li1+  0.450  0.050  0.096  0.968
  Li690  Li1+  0.050  0.450  0.896  0.968
  Li2890  Li1+  0.550  0.550  0.104  0.968
  Li3609  Li1+  0.650  0.050  0.078  0.968
  Li626  Li1+  0.150  0.550  0.741  0.968
  Li4580  Li1+  0.750  0.950  0.122  0.968
  Li352  Li1+  0.150  0.350  0.468  0.969
  Li5409  Li1+  0.950  0.550  0.559  0.969
  Li1825  Li1+  0.246  0.446  0.624  0.969
  Li3868  Li1+  0.646  0.246  0.006  0.969
  Li1686  Li1+  0.246  0.446  0.187  0.969
  Li81  Li1+  0.150  0.150  0.359  0.969
  Li4816  Li1+  0.950  0.150  0.068  0.969
  Li4192  Li1+  0.750  0.550  0.468  0.969
  Li1456  Li1+  0.350  0.350  0.068  0.969
  Li5972  Li1+  0.950  0.950  0.922  0.969
  Li2555  Li1+  0.450  0.050  0.714  0.970
  Li1556  Li1+  0.350  0.350  0.522  0.970
  Li1905  Li1+  0.350  0.550  0.959  0.970
  Li4279  Li1+  0.746  0.550  0.850  0.970
  Li412  Li1+  0.046  0.246  0.606  0.970
  Li1113  Li1+  0.050  0.850  0.678  0.970
  Li1275  Li1+  0.350  0.150  0.396  0.970
  Li5618  Li1+  0.950  0.750  0.541  0.970
  Li1830  Li1+  0.246  0.446  0.787  0.970
  Li5010  Li1+  0.850  0.050  0.896  0.970
  Li3170  Li1+  0.550  0.750  0.341  0.970
  Li1593  Li1+  0.250  0.250  0.678  0.970
  Li3362  Li1+  0.550  0.950  0.141  0.971
  Li2241  Li1+  0.350  0.950  0.359  0.971
  Li5137  Li1+  0.846  0.246  0.424  0.971
  Li4737  Li1+  0.750  0.950  0.759  0.971
  Li3562  Li1+  0.550  0.950  0.904  0.971
  Li160  Li1+  0.150  0.150  0.668  0.971
  Li4664  Li1+  0.650  0.850  0.459  0.971
  Li2793  Li1+  0.450  0.250  0.678  0.971
  Li4226  Li1+  0.750  0.550  0.741  0.971
  Li483  Li1+  0.050  0.450  0.132  0.972
  Li484  Li1+  0.150  0.550  0.177  0.972
  Li1204  Li1+  0.350  0.150  0.177  0.972
  Li1067  Li1+  0.050  0.850  0.514  0.972
  Li5523  Li1+  0.850  0.650  0.132  0.973
  Li821  Li1+  0.050  0.650  0.568  0.973
  Li1994  Li1+  0.250  0.646  0.242  0.973
  Li3282  Li1+  0.450  0.650  0.696  0.973
  Li2067  Li1+  0.250  0.650  0.732  0.974
  Li536  Li1+  0.050  0.450  0.259  0.974
  Li5714  Li1+  0.950  0.750  0.941  0.974
  Li2505  Li1+  0.450  0.050  0.478  0.974
  Li5675  Li1+  0.850  0.650  0.714  0.974
  Li3530  Li1+  0.450  0.846  0.642  0.974
  Li5333  Li1+  0.850  0.450  0.368  0.974
  Li824  Li1+  0.050  0.650  0.459  0.974
  Li2213  Li1+  0.250  0.850  0.368  0.975
  Li1803  Li1+  0.350  0.550  0.596  0.975
  Li1506  Li1+  0.250  0.250  0.296  0.975
  Li4995  Li1+  0.850  0.050  0.932  0.975
  Li387  Li1+  0.050  0.250  0.732  0.975
  Li2128  Li1+  0.350  0.750  0.868  0.975
  Li4996  Li1+  0.950  0.150  0.977  0.975
  Li3086  Li1+  0.500  0.500  0.864  0.975
  Li2504  Li1+  0.450  0.050  0.459  0.976
  Li346  Li1+  0.150  0.350  0.504  0.976
  Li3434  Li1+  0.450  0.846  0.242  0.976
  Li5013  Li1+  0.950  0.146  0.832  0.976
  Li3076  Li1+  0.550  0.550  0.977  0.976
  Li3508  Li1+  0.550  0.950  0.777  0.976
  Li5428  Li1+  0.950  0.550  0.777  0.976
  Li2433  Li1+  0.550  0.150  0.159  0.976
  Li4180  Li1+  0.750  0.550  0.577  0.976
  Li2378  Li1+  0.250  0.846  0.842  0.976
  Li1175  Li1+  0.096  0.900  0.846  0.976
  Li4227  Li1+  0.650  0.450  0.732  0.976
  Li2359  Li1+  0.346  0.950  0.850  0.976
  Li1114  Li1+  0.150  0.950  0.704  0.977
  Li5351  Li1+  0.896  0.500  0.246  0.977
  Li588  Li1+  0.050  0.450  0.550  0.977
  Li1650  Li1+  0.250  0.250  0.896  0.977
  Li2691  Li1+  0.450  0.250  0.332  0.977
  Li2372  Li1+  0.350  0.950  0.922  0.977
  Li4977  Li1+  0.950  0.150  0.759  0.977
  Li99  Li1+  0.050  0.050  0.532  0.977
  Li3516  Li1+  0.450  0.850  0.750  0.977
  Li1110  Li1+  0.046  0.846  0.787  0.977
  Li100  Li1+  0.150  0.150  0.577  0.977
  Li4833  Li1+  0.950  0.150  0.159  0.978
  Li1209  Li1+  0.250  0.050  0.078  0.978
  Li449  Li1+  0.150  0.350  0.886  0.978
  Li4803  Li1+  0.850  0.050  0.132  0.978
  Li1979  Li1+  0.250  0.650  0.314  0.978
  Li5380  Li1+  0.950  0.550  0.577  0.978
  Li2229  Li1+  0.350  0.946  0.232  0.978
  Li60  Li1+  0.050  0.050  0.350  0.978
  Li826  Li1+  0.150  0.750  0.504  0.979
  Li4087  Li1+  0.746  0.550  0.050  0.979
  Li4209  Li1+  0.750  0.550  0.559  0.979
  Li4614  Li1+  0.646  0.846  0.387  0.979
  Li3722  Li1+  0.650  0.046  0.442  0.979
  Li2121  Li1+  0.250  0.650  0.878  0.979
  Li204  Li1+  0.050  0.050  0.950  0.979
  Li1540  Li1+  0.350  0.350  0.577  0.979
  Li1073  Li1+  0.150  0.950  0.486  0.979
  Li2403  Li1+  0.450  0.050  0.132  0.979
  Li2549  Li1+  0.450  0.050  0.768  0.979
  Li5636  Li1+  0.950  0.750  0.522  0.979
  Li2756  Li1+  0.550  0.350  0.522  0.979
  Li1425  Li1+  0.350  0.150  0.959  0.979
  Li2315  Li1+  0.250  0.850  0.714  0.980
  Li4442  Li1+  0.650  0.646  0.442  0.980
  Li3098  Li1+  0.450  0.446  0.842  0.980
  Li3558  Li1+  0.446  0.846  0.987  0.980
  Li482  Li1+  0.150  0.550  0.141  0.980
  Li4707  Li1+  0.650  0.850  0.732  0.980
  Li486  Li1+  0.046  0.446  0.187  0.980
  Li2906  Li1+  0.450  0.446  0.042  0.980
  Li634  Li1+  0.150  0.550  0.704  0.980
  Li5204  Li1+  0.950  0.350  0.722  0.981
  Li3944  Li1+  0.650  0.250  0.459  0.981
  Li2997  Li1+  0.550  0.546  0.432  0.981
  Li1508  Li1+  0.350  0.350  0.322  0.981
  Li1777  Li1+  0.246  0.446  0.424  0.981
  Li3618  Li1+  0.650  0.050  0.096  0.981
  Li5233  Li1+  0.846  0.246  0.824  0.981
  Li5397  Li1+  0.950  0.546  0.432  0.982
  Li2172  Li1+  0.250  0.850  0.150  0.982
  Li4300  Li1+  0.646  0.446  0.806  0.982
  Li1364  Li1+  0.350  0.150  0.722  0.982
  Li5914  Li1+  0.950  0.950  0.704  0.982
  Li4949  Li1+  0.850  0.050  0.768  0.982
  Li3602  Li1+  0.750  0.150  0.141  0.982
  Li1420  Li1+  0.246  0.046  0.806  0.982
  Li4382  Li1+  0.700  0.700  0.264  0.982
  Li1546  Li1+  0.350  0.350  0.504  0.982
  Li644  Li1+  0.150  0.550  0.722  0.982
  Li1493  Li1+  0.250  0.250  0.368  0.982
  Li2596  Li1+  0.550  0.150  0.977  0.982
  Li5868  Li1+  0.850  0.850  0.550  0.982
  Li3428  Li1+  0.550  0.950  0.322  0.982
  Li5580  Li1+  0.850  0.650  0.350  0.982
  Li2891  Li1+  0.450  0.450  0.114  0.982
  Li1634  Li1+  0.350  0.350  0.941  0.982
  Li5338  Li1+  0.950  0.550  0.304  0.982
  Li4476  Li1+  0.650  0.650  0.750  0.983
  Li4724  Li1+  0.750  0.950  0.722  0.983
  Li1587  Li1+  0.250  0.250  0.732  0.983
  Li5876  Li1+  0.950  0.950  0.522  0.983
  Li5042  Li1+  0.950  0.350  0.141  0.983
  Li2314  Li1+  0.350  0.950  0.704  0.983
  Li1324  Li1+  0.246  0.046  0.406  0.984
  Li3509  Li1+  0.450  0.850  0.768  0.984
  Li53  Li1+  0.050  0.050  0.368  0.984
  Li2375  Li1+  0.296  0.900  0.846  0.984
  Li2954  Li1+  0.450  0.446  0.242  0.984
  Li538  Li1+  0.150  0.550  0.304  0.984
  Li4659  Li1+  0.650  0.850  0.532  0.985
  Li3794  Li1+  0.750  0.150  0.941  0.985
  Li3560  Li1+  0.450  0.850  0.859  0.985
  Li3893  Li1+  0.650  0.250  0.368  0.985
  Li5052  Li1+  0.850  0.250  0.150  0.985
  Li4417  Li1+  0.646  0.646  0.424  0.985
  Li1301  Li1+  0.250  0.050  0.568  0.985
  Li3616  Li1+  0.750  0.150  0.068  0.985
  Li4810  Li1+  0.950  0.150  0.104  0.986
  Li675  Li1+  0.050  0.450  0.932  0.986
  Li4581  Li1+  0.750  0.946  0.032  0.986
  Li3371  Li1+  0.450  0.850  0.114  0.986
  Li5316  Li1+  0.896  0.496  0.028  0.986
  Li1754  Li1+  0.250  0.446  0.242  0.986
  Li4908  Li1+  0.850  0.050  0.550  0.986
  Li4181  Li1+  0.650  0.450  0.568  0.986
  Li1061  Li1+  0.050  0.850  0.568  0.986
  Li819  Li1+  0.050  0.650  0.532  0.986
  Li2402  Li1+  0.550  0.150  0.141  0.987
  Li544  Li1+  0.150  0.550  0.268  0.987
  Li2597  Li1+  0.450  0.050  0.968  0.987
  Li4667  Li1+  0.650  0.850  0.514  0.987
  Li534  Li1+  0.046  0.446  0.387  0.987
  Li1028  Li1+  0.150  0.950  0.322  0.987
  Li1738  Li1+  0.350  0.550  0.304  0.987
  Li3956  Li1+  0.750  0.350  0.522  0.987
  Li2618  Li1+  0.450  0.046  0.842  0.987
  Li5964  Li1+  0.850  0.850  0.950  0.987
  Li2220  Li1+  0.250  0.850  0.350  0.987
  Li1635  Li1+  0.250  0.250  0.932  0.987
  Li2762  Li1+  0.450  0.246  0.442  0.988
  Li1586  Li1+  0.350  0.350  0.741  0.988
  Li2604  Li1+  0.450  0.050  0.950  0.988
  Li2357  Li1+  0.250  0.850  0.968  0.988
  Li674  Li1+  0.150  0.550  0.941  0.988
  Li2524  Li1+  0.446  0.046  0.406  0.988
  Li2564  Li1+  0.550  0.150  0.722  0.988
  Li4914  Li1+  0.850  0.050  0.496  0.988
  Li308  Li1+  0.150  0.350  0.322  0.988
  Li1077  Li1+  0.150  0.946  0.432  0.989
  Li2650  Li1+  0.550  0.350  0.104  0.989
  Li1505  Li1+  0.350  0.350  0.286  0.989
  Li2320  Li1+  0.350  0.950  0.668  0.989
  Li1313  Li1+  0.350  0.150  0.486  0.989
  Li5336  Li1+  0.850  0.450  0.259  0.989
  Li149  Li1+  0.050  0.050  0.768  0.989
  Li1041  Li1+  0.150  0.950  0.359  0.989
  Li1602  Li1+  0.250  0.250  0.696  0.989
  Li2644  Li1+  0.550  0.350  0.177  0.989
  Li2404  Li1+  0.550  0.150  0.177  0.990
  Li5147  Li1+  0.850  0.250  0.514  0.990
  Li1409  Li1+  0.350  0.150  0.886  0.990
  Li596  Li1+  0.150  0.550  0.522  0.990
  Li2547  Li1+  0.450  0.050  0.732  0.990
  Li2795  Li1+  0.450  0.250  0.714  0.990
  Li5425  Li1+  0.846  0.446  0.624  0.990
  Li5484  Li1+  0.850  0.450  0.950  0.990
  Li2573  Li1+  0.550  0.146  0.614  0.990
  Li4617  Li1+  0.650  0.850  0.278  0.990
  Li4491  Li1+  0.750  0.750  0.796  0.990
  Li4925  Li1+  0.950  0.146  0.414  0.990
  Li4353  Li1+  0.750  0.750  0.159  0.990
  Li586  Li1+  0.150  0.550  0.504  0.991
  Li635  Li1+  0.050  0.450  0.714  0.991
  Li3823  Li1+  0.700  0.100  0.882  0.991
  Li5922  Li1+  0.850  0.850  0.696  0.991
  Li1874  Li1+  0.350  0.550  0.941  0.991
  Li1953  Li1+  0.350  0.750  0.159  0.991
  Li1884  Li1+  0.250  0.450  0.950  0.991
  Li5745  Li1+  0.950  0.750  0.959  0.991
  Li152  Li1+  0.050  0.050  0.659  0.991
  Li4685  Li1+  0.750  0.946  0.414  0.991
  Li5140  Li1+  0.950  0.350  0.577  0.991
  Li441  Li1+  0.050  0.250  0.878  0.991
  Li4146  Li1+  0.650  0.450  0.296  0.991
  Li5682  Li1+  0.850  0.650  0.696  0.992
  Li5477  Li1+  0.850  0.450  0.968  0.992
  Li162  Li1+  0.050  0.050  0.696  0.992
  Li1557  Li1+  0.350  0.346  0.432  0.992
  Li2196  Li1+  0.296  0.896  0.028  0.992
  Li3988  Li1+  0.750  0.350  0.777  0.992
  Li3073  Li1+  0.446  0.446  0.824  0.992
  Li5249  Li1+  0.950  0.350  0.886  0.992
  Li3815  Li1+  0.696  0.100  0.846  0.993
  Li642  Li1+  0.050  0.450  0.696  0.993
  Li1756  Li1+  0.246  0.446  0.206  0.993
  Li3270  Li1+  0.446  0.646  0.787  0.993
  Li3754  Li1+  0.750  0.150  0.704  0.993
  Li2354  Li1+  0.350  0.950  0.941  0.993
  Li4130  Li1+  0.750  0.550  0.341  0.993
  Li202  Li1+  0.150  0.150  0.904  0.993
  Li4257  Li1+  0.750  0.550  0.759  0.993
  Li5025  Li1+  0.950  0.150  0.959  0.993
  Li3943  Li1+  0.746  0.350  0.450  0.993
  Li3463  Li1+  0.546  0.950  0.450  0.993
  Li4668  Li1+  0.650  0.850  0.550  0.994
  Li2246  Li1+  0.300  0.900  0.300  0.994
  Li296  Li1+  0.050  0.250  0.259  0.994
  Li3292  Li1+  0.446  0.646  0.606  0.994
  Li4419  Li1+  0.650  0.650  0.532  0.994
  Li4961  Li1+  0.950  0.150  0.686  0.994
  Li340  Li1+  0.150  0.350  0.577  0.994
  Li5490  Li1+  0.850  0.450  0.896  0.994
  Li2363  Li1+  0.250  0.850  0.914  0.994
  Li4929  Li1+  0.950  0.150  0.559  0.994
  Li1253  Li1+  0.250  0.050  0.368  0.994
  Li1299  Li1+  0.250  0.050  0.532  0.995
  Li4785  Li1+  0.750  0.950  0.959  0.995
  Li4233  Li1+  0.650  0.450  0.678  0.995
  Li3797  Li1+  0.650  0.050  0.968  0.995
  Li4386  Li1+  0.650  0.650  0.296  0.995
  Li147  Li1+  0.050  0.050  0.732  0.995
  Li4197  Li1+  0.750  0.546  0.432  0.995
  Li4565  Li1+  0.650  0.850  0.168  0.995
  Li5265  Li1+  0.950  0.350  0.959  0.996
  Li4  Li1+  0.150  0.150  0.177  0.996
  Li3845  Li1+  0.650  0.250  0.168  0.996
  Li4234  Li1+  0.750  0.550  0.704  0.996
  Li2850  Li1+  0.450  0.250  0.896  0.996
  Li2423  Li1+  0.496  0.100  0.046  0.996
  Li261  Li1+  0.150  0.346  0.032  0.996
  Li5455  Li1+  0.900  0.500  0.682  0.996
  Li3572  Li1+  0.550  0.950  0.922  0.996
  Li4710  Li1+  0.646  0.846  0.787  0.996
  Li4518  Li1+  0.646  0.646  0.987  0.996
  Li1786  Li1+  0.350  0.550  0.504  0.996
  Li347  Li1+  0.050  0.250  0.514  0.996
  Li1122  Li1+  0.050  0.850  0.696  0.997
  Li3153  Li1+  0.550  0.750  0.159  0.997
  Li5778  Li1+  0.850  0.850  0.096  0.997
  Li2673  Li1+  0.550  0.350  0.159  0.997
  Li1538  Li1+  0.350  0.350  0.541  0.997
  Li2084  Li1+  0.350  0.750  0.722  0.997
  Li1972  Li1+  0.350  0.750  0.377  0.997
  Li5571  Li1+  0.850  0.650  0.332  0.997
  Li4428  Li1+  0.650  0.650  0.550  0.997
  Li3801  Li1+  0.650  0.050  0.878  0.997
  Li604  Li1+  0.046  0.446  0.406  0.997
  Li4184  Li1+  0.650  0.450  0.459  0.998
  Li154  Li1+  0.150  0.150  0.704  0.998
  Li5824  Li1+  0.950  0.950  0.268  0.998
  Li1925  Li1+  0.250  0.650  0.168  0.998
  Li1400  Li1+  0.250  0.050  0.859  0.998
  Li4186  Li1+  0.750  0.550  0.504  0.998
  Li3990  Li1+  0.646  0.246  0.787  0.998
  Li4055  Li1+  0.696  0.300  0.846  0.998
  Li2361  Li1+  0.250  0.850  0.878  0.998
  Li5676  Li1+  0.850  0.650  0.750  0.998
  Li1362  Li1+  0.250  0.050  0.696  0.999
  Li4332  Li1+  0.650  0.650  0.150  0.999
  Li4857  Li1+  0.850  0.050  0.278  0.999
  Li3050  Li1+  0.450  0.446  0.642  0.999
  Li2324  Li1+  0.350  0.950  0.722  0.999
  Li3131  Li1+  0.450  0.650  0.114  0.999
  Li3995  Li1+  0.650  0.250  0.714  0.999
  Li3554  Li1+  0.550  0.950  0.941  0.999
  Li3146  Li1+  0.450  0.646  0.042  0.999
  Li684  Li1+  0.050  0.450  0.950  0.999
  Li4677  Li1+  0.750  0.946  0.432  0.999
  Li3825  Li1+  0.750  0.150  0.959  0.999
  Li1931  Li1+  0.250  0.650  0.114  0.999
  Li5056  Li1+  0.950  0.350  0.068  0.999
  Li2260  Li1+  0.350  0.950  0.577  0.999
  Li4806  Li1+  0.846  0.046  0.187  0.999
  Li1827  Li1+  0.250  0.450  0.732  0.999
  Li605  Li1+  0.150  0.546  0.414  0.999
  Li1844  Li1+  0.350  0.550  0.722  0.999
  Li1442  Li1+  0.350  0.350  0.141  1.000
  Li4323  Li1+  0.650  0.650  0.132  1.000
  Li1881  Li1+  0.250  0.450  0.878  1.000
  Li933  Li1+  0.150  0.746  0.832  1.000
  Li3798  Li1+  0.646  0.046  0.987  1.000
  Li3042  Li1+  0.450  0.450  0.696  1.000
  Li363  Li1+  0.150  0.350  0.596  1.000
  Li1124  Li1+  0.150  0.950  0.722  1.000
  Li177  Li1+  0.150  0.150  0.759  1.000
  Li2739  Li1+  0.450  0.250  0.532  1.000
  Li11  Li1+  0.050  0.050  0.114  1.000
  Li68  Li1+  0.150  0.150  0.322  1.000
  Li112  Li1+  0.150  0.150  0.468  1.000
  Li116  Li1+  0.150  0.150  0.522  1.000
  Li164  Li1+  0.150  0.150  0.722  1.000
  Li195  Li1+  0.050  0.050  0.932  1.000
  Li197  Li1+  0.050  0.050  0.968  1.000
  Li199  Li1+  0.146  0.150  0.850  1.000
  Li209  Li1+  0.150  0.150  0.886  1.000
  Li241  Li1+  0.046  0.246  0.024  1.000
  Li242  Li1+  0.150  0.350  0.141  1.000
  Li243  Li1+  0.050  0.250  0.132  1.000
  Li245  Li1+  0.050  0.250  0.168  1.000
  Li273  Li1+  0.150  0.350  0.159  1.000
  Li291  Li1+  0.050  0.250  0.332  1.000
  Li339  Li1+  0.050  0.250  0.532  1.000
  Li356  Li1+  0.150  0.350  0.522  1.000
  Li405  Li1+  0.150  0.346  0.632  1.000
  Li434  Li1+  0.150  0.350  0.941  1.000
  Li439  Li1+  0.146  0.350  0.850  1.000
  Li489  Li1+  0.050  0.450  0.078  1.000
  Li513  Li1+  0.150  0.550  0.159  1.000
  Li531  Li1+  0.050  0.450  0.332  1.000
  Li533  Li1+  0.050  0.450  0.368  1.000
  Li539  Li1+  0.050  0.450  0.314  1.000
  Li581  Li1+  0.050  0.450  0.568  1.000
  Li625  Li1+  0.046  0.446  0.624  1.000
  Li633  Li1+  0.050  0.450  0.678  1.000
  Li692  Li1+  0.150  0.550  0.922  1.000
  Li698  Li1+  0.050  0.446  0.842  1.000
  Li729  Li1+  0.050  0.650  0.078  1.000
  Li731  Li1+  0.050  0.650  0.114  1.000
  Li778  Li1+  0.150  0.750  0.304  1.000
  Li849  Li1+  0.150  0.750  0.559  1.000
  Li882  Li1+  0.050  0.650  0.696  1.000
  Li897  Li1+  0.150  0.750  0.759  1.000
  Li922  Li1+  0.150  0.750  0.904  1.000
  Li928  Li1+  0.150  0.750  0.868  1.000
  Li966  Li1+  0.046  0.846  0.187  1.000
  Li980  Li1+  0.150  0.950  0.122  1.000
  Li1012  Li1+  0.150  0.950  0.377  1.000
  Li1029  Li1+  0.150  0.946  0.232  1.000
  Li1059  Li1+  0.050  0.850  0.532  1.000
  Li1062  Li1+  0.046  0.846  0.587  1.000
  Li1065  Li1+  0.050  0.850  0.478  1.000
  Li1066  Li1+  0.150  0.950  0.504  1.000
  Li1076  Li1+  0.150  0.950  0.522  1.000
  Li1082  Li1+  0.050  0.846  0.442  1.000
  Li1109  Li1+  0.050  0.850  0.768  1.000
  Li1137  Li1+  0.150  0.950  0.759  1.000
  Li1157  Li1+  0.050  0.850  0.968  1.000
  Li1163  Li1+  0.050  0.850  0.914  1.000
  Li1168  Li1+  0.150  0.950  0.868  1.000
  Li1201  Li1+  0.246  0.046  0.024  1.000
  Li1205  Li1+  0.250  0.050  0.168  1.000
  Li1211  Li1+  0.250  0.050  0.114  1.000
  Li1217  Li1+  0.350  0.150  0.086  1.000
  Li1220  Li1+  0.350  0.150  0.122  1.000
  Li1254  Li1+  0.246  0.046  0.387  1.000
  Li1268  Li1+  0.350  0.150  0.322  1.000
  Li1300  Li1+  0.350  0.150  0.577  1.000
  Li1305  Li1+  0.250  0.050  0.478  1.000
  Li1332  Li1+  0.296  0.096  0.428  1.000
  Li1354  Li1+  0.350  0.150  0.704  1.000
  Li1355  Li1+  0.250  0.050  0.714  1.000
  Li1361  Li1+  0.350  0.150  0.686  1.000
  Li1397  Li1+  0.250  0.050  0.968  1.000
  Li1421  Li1+  0.350  0.146  0.814  1.000
  Li1443  Li1+  0.250  0.250  0.132  1.000
  Li1445  Li1+  0.250  0.250  0.168  1.000
  Li1473  Li1+  0.350  0.350  0.159  1.000
  Li1498  Li1+  0.350  0.350  0.304  1.000
  Li1504  Li1+  0.350  0.350  0.268  1.000
  Li1541  Li1+  0.250  0.250  0.568  1.000
  Li1553  Li1+  0.350  0.350  0.486  1.000
  Li1588  Li1+  0.350  0.350  0.777  1.000
  Li1594  Li1+  0.350  0.350  0.704  1.000
  Li1604  Li1+  0.350  0.350  0.722  1.000
  Li1617  Li1+  0.350  0.350  0.759  1.000
  Li1637  Li1+  0.250  0.250  0.968  1.000
  Li1665  Li1+  0.350  0.350  0.959  1.000
  Li1731  Li1+  0.250  0.450  0.332  1.000
  Li1745  Li1+  0.350  0.550  0.286  1.000
  Li1748  Li1+  0.350  0.550  0.322  1.000
  Li1834  Li1+  0.350  0.550  0.704  1.000
  Li1835  Li1+  0.250  0.450  0.714  1.000
  Li1929  Li1+  0.250  0.650  0.078  1.000
  Li1932  Li1+  0.250  0.650  0.150  1.000
  Li1936  Li1+  0.350  0.750  0.068  1.000
  Li1970  Li1+  0.350  0.750  0.341  1.000
  Li2022  Li1+  0.246  0.646  0.587  1.000
  Li2023  Li1+  0.346  0.750  0.450  1.000
  Li2068  Li1+  0.350  0.750  0.777  1.000
  Li2080  Li1+  0.350  0.750  0.668  1.000
  Li2115  Li1+  0.250  0.650  0.932  1.000
  Li2124  Li1+  0.250  0.650  0.950  1.000
  Li2133  Li1+  0.350  0.746  0.832  1.000
  Li2145  Li1+  0.350  0.750  0.959  1.000
  Li2166  Li1+  0.246  0.846  0.187  1.000
  Li2170  Li1+  0.350  0.950  0.104  1.000
  Li2235  Li1+  0.350  0.950  0.396  1.000
  Li2258  Li1+  0.350  0.950  0.541  1.000
  Li2264  Li1+  0.250  0.850  0.459  1.000
  Li2273  Li1+  0.350  0.950  0.486  1.000
  Li2284  Li1+  0.246  0.846  0.406  1.000
  Li2311  Li1+  0.346  0.950  0.650  1.000
  Li2313  Li1+  0.250  0.850  0.678  1.000
  Li2321  Li1+  0.350  0.950  0.686  1.000
  Li2337  Li1+  0.350  0.950  0.759  1.000
  Li2356  Li1+  0.350  0.950  0.977  1.000
  Li2364  Li1+  0.250  0.850  0.950  1.000
  Li2385  Li1+  0.350  0.950  0.959  1.000
  Li2405  Li1+  0.450  0.050  0.168  1.000
  Li2420  Li1+  0.550  0.150  0.122  1.000
  Li2454  Li1+  0.446  0.046  0.387  1.000
  Li2456  Li1+  0.450  0.050  0.259  1.000
  Li2457  Li1+  0.450  0.050  0.278  1.000
  Li2523  Li1+  0.550  0.150  0.596  1.000
  Li2552  Li1+  0.450  0.050  0.659  1.000
  Li2553  Li1+  0.450  0.050  0.678  1.000
  Li2594  Li1+  0.550  0.150  0.941  1.000
  Li2625  Li1+  0.550  0.150  0.959  1.000
  Li2645  Li1+  0.450  0.250  0.168  1.000
  Li2716  Li1+  0.446  0.246  0.206  1.000
  Li2740  Li1+  0.550  0.350  0.577  1.000
  Li2746  Li1+  0.550  0.350  0.504  1.000
  Li2796  Li1+  0.450  0.250  0.750  1.000
  Li2801  Li1+  0.550  0.350  0.686  1.000
  Li2865  Li1+  0.550  0.350  0.959  1.000
  Li2882  Li1+  0.550  0.550  0.141  1.000
  Li2885  Li1+  0.450  0.450  0.168  1.000
  Li2897  Li1+  0.550  0.550  0.086  1.000
  Li2900  Li1+  0.550  0.550  0.122  1.000
  Li2936  Li1+  0.450  0.450  0.259  1.000
  Li2937  Li1+  0.450  0.450  0.278  1.000
  Li2961  Li1+  0.550  0.550  0.359  1.000
  Li2977  Li1+  0.446  0.446  0.424  1.000
  Li2978  Li1+  0.550  0.550  0.541  1.000
  Li2981  Li1+  0.450  0.450  0.568  1.000
  Li2993  Li1+  0.550  0.550  0.486  1.000
  Li3029  Li1+  0.450  0.450  0.768  1.000
  Li3035  Li1+  0.450  0.450  0.714  1.000
  Li3057  Li1+  0.550  0.550  0.759  1.000
  Li3078  Li1+  0.446  0.446  0.987  1.000
  Li3079  Li1+  0.546  0.550  0.850  1.000
  Li3125  Li1+  0.450  0.650  0.168  1.000
  Li3130  Li1+  0.550  0.750  0.104  1.000
  Li3137  Li1+  0.550  0.750  0.086  1.000
  Li3177  Li1+  0.450  0.650  0.278  1.000
  Li3269  Li1+  0.450  0.650  0.768  1.000
  Li3273  Li1+  0.450  0.650  0.678  1.000
  Li3317  Li1+  0.450  0.650  0.968  1.000
  Li3319  Li1+  0.546  0.750  0.850  1.000
  Li3332  Li1+  0.550  0.750  0.922  1.000
  Li3393  Li1+  0.550  0.950  0.159  1.000
  Li3476  Li1+  0.550  0.950  0.522  1.000
  Li3510  Li1+  0.446  0.846  0.787  1.000
  Li3514  Li1+  0.550  0.950  0.704  1.000
  Li3561  Li1+  0.450  0.850  0.878  1.000
  Li3581  Li1+  0.550  0.946  0.814  1.000
  Li3585  Li1+  0.550  0.950  0.959  1.000
  Li3603  Li1+  0.650  0.050  0.132  1.000
  Li3610  Li1+  0.750  0.150  0.104  1.000
  Li3617  Li1+  0.750  0.150  0.086  1.000
  Li3620  Li1+  0.750  0.150  0.122  1.000
  Li3654  Li1+  0.646  0.046  0.387  1.000
  Li3657  Li1+  0.650  0.050  0.278  1.000
  Li3755  Li1+  0.650  0.050  0.714  1.000
  Li3771  Li1+  0.750  0.150  0.796  1.000
  Li3777  Li1+  0.750  0.150  0.759  1.000
  Li3804  Li1+  0.650  0.050  0.950  1.000
  Li3810  Li1+  0.650  0.050  0.896  1.000
  Li3812  Li1+  0.750  0.150  0.922  1.000
  Li3843  Li1+  0.650  0.250  0.132  1.000
  Li3847  Li1+  0.746  0.350  0.050  1.000
  Li3851  Li1+  0.650  0.250  0.114  1.000
  Li3857  Li1+  0.750  0.350  0.086  1.000
  Li3860  Li1+  0.750  0.350  0.122  1.000
  Li3861  Li1+  0.750  0.346  0.032  1.000
  Li3889  Li1+  0.646  0.246  0.224  1.000
  Li3897  Li1+  0.650  0.250  0.278  1.000
  Li3940  Li1+  0.750  0.350  0.577  1.000
  Li3969  Li1+  0.750  0.350  0.559  1.000
  Li4040  Li1+  0.650  0.250  0.859  1.000
  Li4065  Li1+  0.750  0.350  0.959  1.000
  Li4082  Li1+  0.750  0.550  0.141  1.000
  Li4090  Li1+  0.750  0.550  0.104  1.000
  Li4097  Li1+  0.750  0.550  0.086  1.000
  Li4098  Li1+  0.650  0.450  0.096  1.000
  Li4137  Li1+  0.650  0.450  0.278  1.000
  Li4156  Li1+  0.646  0.446  0.206  1.000
  Li4161  Li1+  0.750  0.550  0.359  1.000
  Li4188  Li1+  0.650  0.450  0.550  1.000
  Li4193  Li1+  0.750  0.550  0.486  1.000
  Li4242  Li1+  0.650  0.450  0.696  1.000
  Li4281  Li1+  0.650  0.450  0.878  1.000
  Li4284  Li1+  0.650  0.450  0.950  1.000
  Li4330  Li1+  0.750  0.750  0.104  1.000
  Li4336  Li1+  0.750  0.750  0.068  1.000
  Li4338  Li1+  0.650  0.650  0.096  1.000
  Li4377  Li1+  0.650  0.650  0.278  1.000
  Li4436  Li1+  0.750  0.750  0.522  1.000
  Li4443  Li1+  0.750  0.750  0.596  1.000
  Li4449  Li1+  0.750  0.750  0.559  1.000
  Li4469  Li1+  0.650  0.650  0.768  1.000
  Li4472  Li1+  0.650  0.650  0.659  1.000
  Li4515  Li1+  0.650  0.650  0.932  1.000
  Li4517  Li1+  0.650  0.650  0.968  1.000
  Li4522  Li1+  0.750  0.750  0.904  1.000
  Li4562  Li1+  0.750  0.950  0.141  1.000
  Li4570  Li1+  0.750  0.950  0.104  1.000
  Li4572  Li1+  0.650  0.850  0.150  1.000
  Li4577  Li1+  0.750  0.950  0.086  1.000
  Li4578  Li1+  0.650  0.850  0.096  1.000
  Li4593  Li1+  0.750  0.950  0.159  1.000
  Li4631  Li1+  0.696  0.900  0.246  1.000
  Li4706  Li1+  0.750  0.950  0.741  1.000
  Li4715  Li1+  0.650  0.850  0.714  1.000
  Li4722  Li1+  0.650  0.850  0.696  1.000
  Li4817  Li1+  0.950  0.150  0.086  1.000
  Li4853  Li1+  0.850  0.050  0.368  1.000
  Li4881  Li1+  0.950  0.150  0.359  1.000
  Li4916  Li1+  0.950  0.150  0.522  1.000
  Li4952  Li1+  0.850  0.050  0.659  1.000
  Li4962  Li1+  0.850  0.050  0.696  1.000
  Li4964  Li1+  0.950  0.150  0.722  1.000
  Li4965  Li1+  0.950  0.146  0.632  1.000
  Li4997  Li1+  0.850  0.050  0.968  1.000
  Li4998  Li1+  0.846  0.046  0.987  1.000
  Li5009  Li1+  0.950  0.150  0.886  1.000
  Li5015  Li1+  0.896  0.100  0.846  1.000
  Li5058  Li1+  0.850  0.250  0.096  1.000
  Li5068  Li1+  0.846  0.246  0.006  1.000
  Li5073  Li1+  0.950  0.350  0.159  1.000
  Li5093  Li1+  0.850  0.250  0.368  1.000
  Li5139  Li1+  0.850  0.250  0.532  1.000
  Li5141  Li1+  0.850  0.250  0.568  1.000
  Li5157  Li1+  0.950  0.346  0.432  1.000
  Li5169  Li1+  0.950  0.350  0.559  1.000
  Li5185  Li1+  0.846  0.246  0.624  1.000
  Li5187  Li1+  0.850  0.250  0.732  1.000
  Li5192  Li1+  0.850  0.250  0.659  1.000
  Li5194  Li1+  0.950  0.350  0.704  1.000
  Li5237  Li1+  0.850  0.250  0.968  1.000
  Li5243  Li1+  0.850  0.250  0.914  1.000
  Li5252  Li1+  0.950  0.350  0.922  1.000
  Li5282  Li1+  0.950  0.550  0.141  1.000
  Li5283  Li1+  0.850  0.450  0.132  1.000
  Li5291  Li1+  0.850  0.450  0.114  1.000
  Li5313  Li1+  0.950  0.550  0.159  1.000
  Li5348  Li1+  0.950  0.550  0.322  1.000
  Li5386  Li1+  0.950  0.550  0.504  1.000
  Li5393  Li1+  0.950  0.550  0.486  1.000
  Li5403  Li1+  0.950  0.550  0.596  1.000
  Li5444  Li1+  0.950  0.550  0.722  1.000
  Li5505  Li1+  0.950  0.550  0.959  1.000
  Li5522  Li1+  0.950  0.750  0.141  1.000
  Li5528  Li1+  0.850  0.650  0.059  1.000
  Li5540  Li1+  0.950  0.750  0.122  1.000
  Li5553  Li1+  0.950  0.750  0.159  1.000
  Li5572  Li1+  0.950  0.750  0.377  1.000
  Li5584  Li1+  0.950  0.750  0.268  1.000
  Li5589  Li1+  0.950  0.746  0.232  1.000
  Li5596  Li1+  0.846  0.646  0.206  1.000
  Li5619  Li1+  0.850  0.650  0.532  1.000
  Li5625  Li1+  0.850  0.650  0.478  1.000
  Li5670  Li1+  0.846  0.646  0.787  1.000
  Li5681  Li1+  0.950  0.750  0.686  1.000
  Li5740  Li1+  0.846  0.646  0.806  1.000
  Li5769  Li1+  0.850  0.850  0.078  1.000
  Li5772  Li1+  0.850  0.850  0.150  1.000
  Li5787  Li1+  0.950  0.950  0.196  1.000
  Li5826  Li1+  0.850  0.850  0.296  1.000
  Li5858  Li1+  0.950  0.950  0.541  1.000
  Li5859  Li1+  0.850  0.850  0.532  1.000
  Li5862  Li1+  0.846  0.846  0.587  1.000
  Li5874  Li1+  0.850  0.850  0.496  1.000
  Li5889  Li1+  0.950  0.950  0.559  1.000
  Li5908  Li1+  0.950  0.950  0.777  1.000
  Li5921  Li1+  0.950  0.950  0.686  1.000
  Li5957  Li1+  0.850  0.850  0.968  1.000
  Li5980  Li1+  0.846  0.846  0.806  1.000
  S22  S2-  0.197  0.197  0.001  1.000
  S22  S2-  0.197  0.197  0.201  1.000
  S22  S2-  0.197  0.197  0.401  1.000
  S22  S2-  0.197  0.197  0.601  1.000
  S22  S2-  0.197  0.197  0.801  1.000
  S22  S2-  0.197  0.397  0.001  1.000
  S22  S2-  0.197  0.397  0.201  1.000
  S22  S2-  0.197  0.397  0.401  1.000
  S22  S2-  0.197  0.397  0.601  1.000
  S22  S2-  0.197  0.397  0.801  1.000
  S22  S2-  0.197  0.597  0.001  1.000
  S22  S2-  0.197  0.597  0.201  1.000
  S22  S2-  0.197  0.597  0.401  1.000
  S22  S2-  0.197  0.597  0.601  1.000
  S22  S2-  0.197  0.597  0.801  1.000
  S22  S2-  0.197  0.797  0.001  1.000
  S22  S2-  0.197  0.797  0.201  1.000
  S22  S2-  0.197  0.797  0.401  1.000
  S22  S2-  0.197  0.797  0.601  1.000
  S22  S2-  0.197  0.797  0.801  1.000
  S22  S2-  0.197  0.997  0.001  1.000
  S22  S2-  0.197  0.997  0.201  1.000
  S22  S2-  0.197  0.997  0.401  1.000
  S22  S2-  0.197  0.997  0.601  1.000
  S22  S2-  0.197  0.997  0.801  1.000
  S22  S2-  0.397  0.197  0.001  1.000
  S22  S2-  0.397  0.197  0.201  1.000
  S22  S2-  0.397  0.197  0.401  1.000
  S22  S2-  0.397  0.197  0.601  1.000
  S22  S2-  0.397  0.197  0.801  1.000
  S22  S2-  0.397  0.397  0.001  1.000
  S22  S2-  0.397  0.397  0.201  1.000
  S22  S2-  0.397  0.397  0.401  1.000
  S22  S2-  0.397  0.397  0.601  1.000
  S22  S2-  0.397  0.397  0.801  1.000
  S22  S2-  0.397  0.597  0.001  1.000
  S22  S2-  0.397  0.597  0.201  1.000
  S22  S2-  0.397  0.597  0.401  1.000
  S22  S2-  0.397  0.597  0.601  1.000
  S22  S2-  0.397  0.597  0.801  1.000
  S22  S2-  0.397  0.797  0.001  1.000
  S22  S2-  0.397  0.797  0.201  1.000
  S22  S2-  0.397  0.797  0.401  1.000
  S22  S2-  0.397  0.797  0.601  1.000
  S22  S2-  0.397  0.797  0.801  1.000
  S22  S2-  0.397  0.997  0.001  1.000
  S22  S2-  0.397  0.997  0.201  1.000
  S22  S2-  0.397  0.997  0.401  1.000
  S22  S2-  0.397  0.997  0.601  1.000
  S22  S2-  0.397  0.997  0.801  1.000
  S22  S2-  0.597  0.197  0.001  1.000
  S22  S2-  0.597  0.197  0.201  1.000
  S22  S2-  0.597  0.197  0.401  1.000
  S22  S2-  0.597  0.197  0.601  1.000
  S22  S2-  0.597  0.197  0.801  1.000
  S22  S2-  0.597  0.397  0.001  1.000
  S22  S2-  0.597  0.397  0.201  1.000
  S22  S2-  0.597  0.397  0.401  1.000
  S22  S2-  0.597  0.397  0.601  1.000
  S22  S2-  0.597  0.397  0.801  1.000
  S22  S2-  0.597  0.597  0.001  1.000
  S22  S2-  0.597  0.597  0.201  1.000
  S22  S2-  0.597  0.597  0.401  1.000
  S22  S2-  0.597  0.597  0.601  1.000
  S22  S2-  0.597  0.597  0.801  1.000
  S22  S2-  0.597  0.797  0.001  1.000
  S22  S2-  0.597  0.797  0.201  1.000
  S22  S2-  0.597  0.797  0.401  1.000
  S22  S2-  0.597  0.797  0.601  1.000
  S22  S2-  0.597  0.797  0.801  1.000
  S22  S2-  0.597  0.997  0.001  1.000
  S22  S2-  0.597  0.997  0.201  1.000
  S22  S2-  0.597  0.997  0.401  1.000
  S22  S2-  0.597  0.997  0.601  1.000
  S22  S2-  0.597  0.997  0.801  1.000
  S22  S2-  0.797  0.197  0.001  1.000
  S22  S2-  0.797  0.197  0.201  1.000
  S22  S2-  0.797  0.197  0.401  1.000
  S22  S2-  0.797  0.197  0.601  1.000
  S22  S2-  0.797  0.197  0.801  1.000
  S22  S2-  0.797  0.397  0.001  1.000
  S22  S2-  0.797  0.397  0.201  1.000
  S22  S2-  0.797  0.397  0.401  1.000
  S22  S2-  0.797  0.397  0.601  1.000
  S22  S2-  0.797  0.397  0.801  1.000
  S22  S2-  0.797  0.597  0.001  1.000
  S22  S2-  0.797  0.597  0.201  1.000
  S22  S2-  0.797  0.597  0.401  1.000
  S22  S2-  0.797  0.597  0.601  1.000
  S22  S2-  0.797  0.597  0.801  1.000
  S22  S2-  0.797  0.797  0.001  1.000
  S22  S2-  0.797  0.797  0.201  1.000
  S22  S2-  0.797  0.797  0.401  1.000
  S22  S2-  0.797  0.797  0.601  1.000
  S22  S2-  0.797  0.797  0.801  1.000
  S22  S2-  0.797  0.997  0.001  1.000
  S22  S2-  0.797  0.997  0.201  1.000
  S22  S2-  0.797  0.997  0.401  1.000
  S22  S2-  0.797  0.997  0.601  1.000
  S22  S2-  0.797  0.997  0.801  1.000
  S22  S2-  0.997  0.197  0.001  1.000
  S22  S2-  0.997  0.197  0.201  1.000
  S22  S2-  0.997  0.197  0.401  1.000
  S22  S2-  0.997  0.197  0.601  1.000
  S22  S2-  0.997  0.197  0.801  1.000
  S22  S2-  0.997  0.397  0.001  1.000
  S22  S2-  0.997  0.397  0.201  1.000
  S22  S2-  0.997  0.397  0.401  1.000
  S22  S2-  0.997  0.397  0.601  1.000
  S22  S2-  0.997  0.397  0.801  1.000
  S22  S2-  0.997  0.597  0.001  1.000
  S22  S2-  0.997  0.597  0.201  1.000
  S22  S2-  0.997  0.597  0.401  1.000
  S22  S2-  0.997  0.597  0.601  1.000
  S22  S2-  0.997  0.597  0.801  1.000
  S22  S2-  0.997  0.797  0.001  1.000
  S22  S2-  0.997  0.797  0.201  1.000
  S22  S2-  0.997  0.797  0.401  1.000
  S22  S2-  0.997  0.797  0.601  1.000
  S22  S2-  0.997  0.797  0.801  1.000
  S22  S2-  0.997  0.997  0.001  1.000
  S22  S2-  0.997  0.997  0.201  1.000
  S22  S2-  0.997  0.997  0.401  1.000
  S22  S2-  0.997  0.997  0.601  1.000
  S22  S2-  0.997  0.997  0.801  1.000
  S23  S2-  0.197  0.197  0.019  1.000
  S23  S2-  0.197  0.197  0.219  1.000
  S23  S2-  0.197  0.197  0.419  1.000
  S23  S2-  0.197  0.197  0.619  1.000
  S23  S2-  0.197  0.197  0.819  1.000
  S23  S2-  0.197  0.397  0.019  1.000
  S23  S2-  0.197  0.397  0.219  1.000
  S23  S2-  0.197  0.397  0.419  1.000
  S23  S2-  0.197  0.397  0.619  1.000
  S23  S2-  0.197  0.397  0.819  1.000
  S23  S2-  0.197  0.597  0.019  1.000
  S23  S2-  0.197  0.597  0.219  1.000
  S23  S2-  0.197  0.597  0.419  1.000
  S23  S2-  0.197  0.597  0.619  1.000
  S23  S2-  0.197  0.597  0.819  1.000
  S23  S2-  0.197  0.797  0.019  1.000
  S23  S2-  0.197  0.797  0.219  1.000
  S23  S2-  0.197  0.797  0.419  1.000
  S23  S2-  0.197  0.797  0.619  1.000
  S23  S2-  0.197  0.797  0.819  1.000
  S23  S2-  0.197  0.997  0.019  1.000
  S23  S2-  0.197  0.997  0.219  1.000
  S23  S2-  0.197  0.997  0.419  1.000
  S23  S2-  0.197  0.997  0.619  1.000
  S23  S2-  0.197  0.997  0.819  1.000
  S23  S2-  0.397  0.197  0.019  1.000
  S23  S2-  0.397  0.197  0.219  1.000
  S23  S2-  0.397  0.197  0.419  1.000
  S23  S2-  0.397  0.197  0.619  1.000
  S23  S2-  0.397  0.197  0.819  1.000
  S23  S2-  0.397  0.397  0.019  1.000
  S23  S2-  0.397  0.397  0.219  1.000
  S23  S2-  0.397  0.397  0.419  1.000
  S23  S2-  0.397  0.397  0.619  1.000
  S23  S2-  0.397  0.397  0.819  1.000
  S23  S2-  0.397  0.597  0.019  1.000
  S23  S2-  0.397  0.597  0.219  1.000
  S23  S2-  0.397  0.597  0.419  1.000
  S23  S2-  0.397  0.597  0.619  1.000
  S23  S2-  0.397  0.597  0.819  1.000
  S23  S2-  0.397  0.797  0.019  1.000
  S23  S2-  0.397  0.797  0.219  1.000
  S23  S2-  0.397  0.797  0.419  1.000
  S23  S2-  0.397  0.797  0.619  1.000
  S23  S2-  0.397  0.797  0.819  1.000
  S23  S2-  0.397  0.997  0.019  1.000
  S23  S2-  0.397  0.997  0.219  1.000
  S23  S2-  0.397  0.997  0.419  1.000
  S23  S2-  0.397  0.997  0.619  1.000
  S23  S2-  0.397  0.997  0.819  1.000
  S23  S2-  0.597  0.197  0.019  1.000
  S23  S2-  0.597  0.197  0.219  1.000
  S23  S2-  0.597  0.197  0.419  1.000
  S23  S2-  0.597  0.197  0.619  1.000
  S23  S2-  0.597  0.197  0.819  1.000
  S23  S2-  0.597  0.397  0.019  1.000
  S23  S2-  0.597  0.397  0.219  1.000
  S23  S2-  0.597  0.397  0.419  1.000
  S23  S2-  0.597  0.397  0.619  1.000
  S23  S2-  0.597  0.397  0.819  1.000
  S23  S2-  0.597  0.597  0.019  1.000
  S23  S2-  0.597  0.597  0.219  1.000
  S23  S2-  0.597  0.597  0.419  1.000
  S23  S2-  0.597  0.597  0.619  1.000
  S23  S2-  0.597  0.597  0.819  1.000
  S23  S2-  0.597  0.797  0.019  1.000
  S23  S2-  0.597  0.797  0.219  1.000
  S23  S2-  0.597  0.797  0.419  1.000
  S23  S2-  0.597  0.797  0.619  1.000
  S23  S2-  0.597  0.797  0.819  1.000
  S23  S2-  0.597  0.997  0.019  1.000
  S23  S2-  0.597  0.997  0.219  1.000
  S23  S2-  0.597  0.997  0.419  1.000
  S23  S2-  0.597  0.997  0.619  1.000
  S23  S2-  0.597  0.997  0.819  1.000
  S23  S2-  0.797  0.197  0.019  1.000
  S23  S2-  0.797  0.197  0.219  1.000
  S23  S2-  0.797  0.197  0.419  1.000
  S23  S2-  0.797  0.197  0.619  1.000
  S23  S2-  0.797  0.197  0.819  1.000
  S23  S2-  0.797  0.397  0.019  1.000
  S23  S2-  0.797  0.397  0.219  1.000
  S23  S2-  0.797  0.397  0.419  1.000
  S23  S2-  0.797  0.397  0.619  1.000
  S23  S2-  0.797  0.397  0.819  1.000
  S23  S2-  0.797  0.597  0.019  1.000
  S23  S2-  0.797  0.597  0.219  1.000
  S23  S2-  0.797  0.597  0.419  1.000
  S23  S2-  0.797  0.597  0.619  1.000
  S23  S2-  0.797  0.597  0.819  1.000
  S23  S2-  0.797  0.797  0.019  1.000
  S23  S2-  0.797  0.797  0.219  1.000
  S23  S2-  0.797  0.797  0.419  1.000
  S23  S2-  0.797  0.797  0.619  1.000
  S23  S2-  0.797  0.797  0.819  1.000
  S23  S2-  0.797  0.997  0.019  1.000
  S23  S2-  0.797  0.997  0.219  1.000
  S23  S2-  0.797  0.997  0.419  1.000
  S23  S2-  0.797  0.997  0.619  1.000
  S23  S2-  0.797  0.997  0.819  1.000
  S23  S2-  0.997  0.197  0.019  1.000
  S23  S2-  0.997  0.197  0.219  1.000
  S23  S2-  0.997  0.197  0.419  1.000
  S23  S2-  0.997  0.197  0.619  1.000
  S23  S2-  0.997  0.197  0.819  1.000
  S23  S2-  0.997  0.397  0.019  1.000
  S23  S2-  0.997  0.397  0.219  1.000
  S23  S2-  0.997  0.397  0.419  1.000
  S23  S2-  0.997  0.397  0.619  1.000
  S23  S2-  0.997  0.397  0.819  1.000
  S23  S2-  0.997  0.597  0.019  1.000
  S23  S2-  0.997  0.597  0.219  1.000
  S23  S2-  0.997  0.597  0.419  1.000
  S23  S2-  0.997  0.597  0.619  1.000
  S23  S2-  0.997  0.597  0.819  1.000
  S23  S2-  0.997  0.797  0.019  1.000
  S23  S2-  0.997  0.797  0.219  1.000
  S23  S2-  0.997  0.797  0.419  1.000
  S23  S2-  0.997  0.797  0.619  1.000
  S23  S2-  0.997  0.797  0.819  1.000
  S23  S2-  0.997  0.997  0.019  1.000
  S23  S2-  0.997  0.997  0.219  1.000
  S23  S2-  0.997  0.997  0.419  1.000
  S23  S2-  0.997  0.997  0.619  1.000
  S23  S2-  0.997  0.997  0.819  1.000
  S24  S2-  0.197  0.197  0.037  1.000
  S24  S2-  0.197  0.197  0.237  1.000
  S24  S2-  0.197  0.197  0.437  1.000
  S24  S2-  0.197  0.197  0.637  1.000
  S24  S2-  0.197  0.197  0.837  1.000
  S24  S2-  0.197  0.397  0.037  1.000
  S24  S2-  0.197  0.397  0.237  1.000
  S24  S2-  0.197  0.397  0.437  1.000
  S24  S2-  0.197  0.397  0.637  1.000
  S24  S2-  0.197  0.397  0.837  1.000
  S24  S2-  0.197  0.597  0.037  1.000
  S24  S2-  0.197  0.597  0.237  1.000
  S24  S2-  0.197  0.597  0.437  1.000
  S24  S2-  0.197  0.597  0.637  1.000
  S24  S2-  0.197  0.597  0.837  1.000
  S24  S2-  0.197  0.797  0.037  1.000
  S24  S2-  0.197  0.797  0.237  1.000
  S24  S2-  0.197  0.797  0.437  1.000
  S24  S2-  0.197  0.797  0.637  1.000
  S24  S2-  0.197  0.797  0.837  1.000
  S24  S2-  0.197  0.997  0.037  1.000
  S24  S2-  0.197  0.997  0.237  1.000
  S24  S2-  0.197  0.997  0.437  1.000
  S24  S2-  0.197  0.997  0.637  1.000
  S24  S2-  0.197  0.997  0.837  1.000
  S24  S2-  0.397  0.197  0.037  1.000
  S24  S2-  0.397  0.197  0.237  1.000
  S24  S2-  0.397  0.197  0.437  1.000
  S24  S2-  0.397  0.197  0.637  1.000
  S24  S2-  0.397  0.197  0.837  1.000
  S24  S2-  0.397  0.397  0.037  1.000
  S24  S2-  0.397  0.397  0.237  1.000
  S24  S2-  0.397  0.397  0.437  1.000
  S24  S2-  0.397  0.397  0.637  1.000
  S24  S2-  0.397  0.397  0.837  1.000
  S24  S2-  0.397  0.597  0.037  1.000
  S24  S2-  0.397  0.597  0.237  1.000
  S24  S2-  0.397  0.597  0.437  1.000
  S24  S2-  0.397  0.597  0.637  1.000
  S24  S2-  0.397  0.597  0.837  1.000
  S24  S2-  0.397  0.797  0.037  1.000
  S24  S2-  0.397  0.797  0.237  1.000
  S24  S2-  0.397  0.797  0.437  1.000
  S24  S2-  0.397  0.797  0.637  1.000
  S24  S2-  0.397  0.797  0.837  1.000
  S24  S2-  0.397  0.997  0.037  1.000
  S24  S2-  0.397  0.997  0.237  1.000
  S24  S2-  0.397  0.997  0.437  1.000
  S24  S2-  0.397  0.997  0.637  1.000
  S24  S2-  0.397  0.997  0.837  1.000
  S24  S2-  0.597  0.197  0.037  1.000
  S24  S2-  0.597  0.197  0.237  1.000
  S24  S2-  0.597  0.197  0.437  1.000
  S24  S2-  0.597  0.197  0.637  1.000
  S24  S2-  0.597  0.197  0.837  1.000
  S24  S2-  0.597  0.397  0.037  1.000
  S24  S2-  0.597  0.397  0.237  1.000
  S24  S2-  0.597  0.397  0.437  1.000
  S24  S2-  0.597  0.397  0.637  1.000
  S24  S2-  0.597  0.397  0.837  1.000
  S24  S2-  0.597  0.597  0.037  1.000
  S24  S2-  0.597  0.597  0.237  1.000
  S24  S2-  0.597  0.597  0.437  1.000
  S24  S2-  0.597  0.597  0.637  1.000
  S24  S2-  0.597  0.597  0.837  1.000
  S24  S2-  0.597  0.797  0.037  1.000
  S24  S2-  0.597  0.797  0.237  1.000
  S24  S2-  0.597  0.797  0.437  1.000
  S24  S2-  0.597  0.797  0.637  1.000
  S24  S2-  0.597  0.797  0.837  1.000
  S24  S2-  0.597  0.997  0.037  1.000
  S24  S2-  0.597  0.997  0.237  1.000
  S24  S2-  0.597  0.997  0.437  1.000
  S24  S2-  0.597  0.997  0.637  1.000
  S24  S2-  0.597  0.997  0.837  1.000
  S24  S2-  0.797  0.197  0.037  1.000
  S24  S2-  0.797  0.197  0.237  1.000
  S24  S2-  0.797  0.197  0.437  1.000
  S24  S2-  0.797  0.197  0.637  1.000
  S24  S2-  0.797  0.197  0.837  1.000
  S24  S2-  0.797  0.397  0.037  1.000
  S24  S2-  0.797  0.397  0.237  1.000
  S24  S2-  0.797  0.397  0.437  1.000
  S24  S2-  0.797  0.397  0.637  1.000
  S24  S2-  0.797  0.397  0.837  1.000
  S24  S2-  0.797  0.597  0.037  1.000
  S24  S2-  0.797  0.597  0.237  1.000
  S24  S2-  0.797  0.597  0.437  1.000
  S24  S2-  0.797  0.597  0.637  1.000
  S24  S2-  0.797  0.597  0.837  1.000
  S24  S2-  0.797  0.797  0.037  1.000
  S24  S2-  0.797  0.797  0.237  1.000
  S24  S2-  0.797  0.797  0.437  1.000
  S24  S2-  0.797  0.797  0.637  1.000
  S24  S2-  0.797  0.797  0.837  1.000
  S24  S2-  0.797  0.997  0.037  1.000
  S24  S2-  0.797  0.997  0.237  1.000
  S24  S2-  0.797  0.997  0.437  1.000
  S24  S2-  0.797  0.997  0.637  1.000
  S24  S2-  0.797  0.997  0.837  1.000
  S24  S2-  0.997  0.197  0.037  1.000
  S24  S2-  0.997  0.197  0.237  1.000
  S24  S2-  0.997  0.197  0.437  1.000
  S24  S2-  0.997  0.197  0.637  1.000
  S24  S2-  0.997  0.197  0.837  1.000
  S24  S2-  0.997  0.397  0.037  1.000
  S24  S2-  0.997  0.397  0.237  1.000
  S24  S2-  0.997  0.397  0.437  1.000
  S24  S2-  0.997  0.397  0.637  1.000
  S24  S2-  0.997  0.397  0.837  1.000
  S24  S2-  0.997  0.597  0.037  1.000
  S24  S2-  0.997  0.597  0.237  1.000
  S24  S2-  0.997  0.597  0.437  1.000
  S24  S2-  0.997  0.597  0.637  1.000
  S24  S2-  0.997  0.597  0.837  1.000
  S24  S2-  0.997  0.797  0.037  1.000
  S24  S2-  0.997  0.797  0.237  1.000
  S24  S2-  0.997  0.797  0.437  1.000
  S24  S2-  0.997  0.797  0.637  1.000
  S24  S2-  0.997  0.797  0.837  1.000
  S24  S2-  0.997  0.997  0.037  1.000
  S24  S2-  0.997  0.997  0.237  1.000
  S24  S2-  0.997  0.997  0.437  1.000
  S24  S2-  0.997  0.997  0.637  1.000
  S24  S2-  0.997  0.997  0.837  1.000
  S25  S2-  0.199  0.199  0.073  1.000
  S25  S2-  0.199  0.199  0.273  1.000
  S25  S2-  0.199  0.199  0.473  1.000
  S25  S2-  0.199  0.199  0.673  1.000
  S25  S2-  0.199  0.199  0.873  1.000
  S25  S2-  0.199  0.399  0.073  1.000
  S25  S2-  0.199  0.399  0.273  1.000
  S25  S2-  0.199  0.399  0.473  1.000
  S25  S2-  0.199  0.399  0.673  1.000
  S25  S2-  0.199  0.399  0.873  1.000
  S25  S2-  0.199  0.599  0.073  1.000
  S25  S2-  0.199  0.599  0.273  1.000
  S25  S2-  0.199  0.599  0.473  1.000
  S25  S2-  0.199  0.599  0.673  1.000
  S25  S2-  0.199  0.599  0.873  1.000
  S25  S2-  0.199  0.799  0.073  1.000
  S25  S2-  0.199  0.799  0.273  1.000
  S25  S2-  0.199  0.799  0.473  1.000
  S25  S2-  0.199  0.799  0.673  1.000
  S25  S2-  0.199  0.799  0.873  1.000
  S25  S2-  0.199  0.999  0.073  1.000
  S25  S2-  0.199  0.999  0.273  1.000
  S25  S2-  0.199  0.999  0.473  1.000
  S25  S2-  0.199  0.999  0.673  1.000
  S25  S2-  0.199  0.999  0.873  1.000
  S25  S2-  0.399  0.199  0.073  1.000
  S25  S2-  0.399  0.199  0.273  1.000
  S25  S2-  0.399  0.199  0.473  1.000
  S25  S2-  0.399  0.199  0.673  1.000
  S25  S2-  0.399  0.199  0.873  1.000
  S25  S2-  0.399  0.399  0.073  1.000
  S25  S2-  0.399  0.399  0.273  1.000
  S25  S2-  0.399  0.399  0.473  1.000
  S25  S2-  0.399  0.399  0.673  1.000
  S25  S2-  0.399  0.399  0.873  1.000
  S25  S2-  0.399  0.599  0.073  1.000
  S25  S2-  0.399  0.599  0.273  1.000
  S25  S2-  0.399  0.599  0.473  1.000
  S25  S2-  0.399  0.599  0.673  1.000
  S25  S2-  0.399  0.599  0.873  1.000
  S25  S2-  0.399  0.799  0.073  1.000
  S25  S2-  0.399  0.799  0.273  1.000
  S25  S2-  0.399  0.799  0.473  1.000
  S25  S2-  0.399  0.799  0.673  1.000
  S25  S2-  0.399  0.799  0.873  1.000
  S25  S2-  0.399  0.999  0.073  1.000
  S25  S2-  0.399  0.999  0.273  1.000
  S25  S2-  0.399  0.999  0.473  1.000
  S25  S2-  0.399  0.999  0.673  1.000
  S25  S2-  0.399  0.999  0.873  1.000
  S25  S2-  0.599  0.199  0.073  1.000
  S25  S2-  0.599  0.199  0.273  1.000
  S25  S2-  0.599  0.199  0.473  1.000
  S25  S2-  0.599  0.199  0.673  1.000
  S25  S2-  0.599  0.199  0.873  1.000
  S25  S2-  0.599  0.399  0.073  1.000
  S25  S2-  0.599  0.399  0.273  1.000
  S25  S2-  0.599  0.399  0.473  1.000
  S25  S2-  0.599  0.399  0.673  1.000
  S25  S2-  0.599  0.399  0.873  1.000
  S25  S2-  0.599  0.599  0.073  1.000
  S25  S2-  0.599  0.599  0.273  1.000
  S25  S2-  0.599  0.599  0.473  1.000
  S25  S2-  0.599  0.599  0.673  1.000
  S25  S2-  0.599  0.599  0.873  1.000
  S25  S2-  0.599  0.799  0.073  1.000
  S25  S2-  0.599  0.799  0.273  1.000
  S25  S2-  0.599  0.799  0.473  1.000
  S25  S2-  0.599  0.799  0.673  1.000
  S25  S2-  0.599  0.799  0.873  1.000
  S25  S2-  0.599  0.999  0.073  1.000
  S25  S2-  0.599  0.999  0.273  1.000
  S25  S2-  0.599  0.999  0.473  1.000
  S25  S2-  0.599  0.999  0.673  1.000
  S25  S2-  0.599  0.999  0.873  1.000
  S25  S2-  0.799  0.199  0.073  1.000
  S25  S2-  0.799  0.199  0.273  1.000
  S25  S2-  0.799  0.199  0.473  1.000
  S25  S2-  0.799  0.199  0.673  1.000
  S25  S2-  0.799  0.199  0.873  1.000
  S25  S2-  0.799  0.399  0.073  1.000
  S25  S2-  0.799  0.399  0.273  1.000
  S25  S2-  0.799  0.399  0.473  1.000
  S25  S2-  0.799  0.399  0.673  1.000
  S25  S2-  0.799  0.399  0.873  1.000
  S25  S2-  0.799  0.599  0.073  1.000
  S25  S2-  0.799  0.599  0.273  1.000
  S25  S2-  0.799  0.599  0.473  1.000
  S25  S2-  0.799  0.599  0.673  1.000
  S25  S2-  0.799  0.599  0.873  1.000
  S25  S2-  0.799  0.799  0.073  1.000
  S25  S2-  0.799  0.799  0.273  1.000
  S25  S2-  0.799  0.799  0.473  1.000
  S25  S2-  0.799  0.799  0.673  1.000
  S25  S2-  0.799  0.799  0.873  1.000
  S25  S2-  0.799  0.999  0.073  1.000
  S25  S2-  0.799  0.999  0.273  1.000
  S25  S2-  0.799  0.999  0.473  1.000
  S25  S2-  0.799  0.999  0.673  1.000
  S25  S2-  0.799  0.999  0.873  1.000
  S25  S2-  0.999  0.199  0.073  1.000
  S25  S2-  0.999  0.199  0.273  1.000
  S25  S2-  0.999  0.199  0.473  1.000
  S25  S2-  0.999  0.199  0.673  1.000
  S25  S2-  0.999  0.199  0.873  1.000
  S25  S2-  0.999  0.399  0.073  1.000
  S25  S2-  0.999  0.399  0.273  1.000
  S25  S2-  0.999  0.399  0.473  1.000
  S25  S2-  0.999  0.399  0.673  1.000
  S25  S2-  0.999  0.399  0.873  1.000
  S25  S2-  0.999  0.599  0.073  1.000
  S25  S2-  0.999  0.599  0.273  1.000
  S25  S2-  0.999  0.599  0.473  1.000
  S25  S2-  0.999  0.599  0.673  1.000
  S25  S2-  0.999  0.599  0.873  1.000
  S25  S2-  0.999  0.799  0.073  1.000
  S25  S2-  0.999  0.799  0.273  1.000
  S25  S2-  0.999  0.799  0.473  1.000
  S25  S2-  0.999  0.799  0.673  1.000
  S25  S2-  0.999  0.799  0.873  1.000
  S25  S2-  0.999  0.999  0.073  1.000
  S25  S2-  0.999  0.999  0.273  1.000
  S25  S2-  0.999  0.999  0.473  1.000
  S25  S2-  0.999  0.999  0.673  1.000
  S25  S2-  0.999  0.999  0.873  1.000
  S26  S2-  0.199  0.199  0.055  1.000
  S26  S2-  0.199  0.199  0.255  1.000
  S26  S2-  0.199  0.199  0.455  1.000
  S26  S2-  0.199  0.199  0.655  1.000
  S26  S2-  0.199  0.199  0.855  1.000
  S26  S2-  0.199  0.399  0.055  1.000
  S26  S2-  0.199  0.399  0.255  1.000
  S26  S2-  0.199  0.399  0.455  1.000
  S26  S2-  0.199  0.399  0.655  1.000
  S26  S2-  0.199  0.399  0.855  1.000
  S26  S2-  0.199  0.599  0.055  1.000
  S26  S2-  0.199  0.599  0.255  1.000
  S26  S2-  0.199  0.599  0.455  1.000
  S26  S2-  0.199  0.599  0.655  1.000
  S26  S2-  0.199  0.599  0.855  1.000
  S26  S2-  0.199  0.799  0.055  1.000
  S26  S2-  0.199  0.799  0.255  1.000
  S26  S2-  0.199  0.799  0.455  1.000
  S26  S2-  0.199  0.799  0.655  1.000
  S26  S2-  0.199  0.799  0.855  1.000
  S26  S2-  0.199  0.999  0.055  1.000
  S26  S2-  0.199  0.999  0.255  1.000
  S26  S2-  0.199  0.999  0.455  1.000
  S26  S2-  0.199  0.999  0.655  1.000
  S26  S2-  0.199  0.999  0.855  1.000
  S26  S2-  0.399  0.199  0.055  1.000
  S26  S2-  0.399  0.199  0.255  1.000
  S26  S2-  0.399  0.199  0.455  1.000
  S26  S2-  0.399  0.199  0.655  1.000
  S26  S2-  0.399  0.199  0.855  1.000
  S26  S2-  0.399  0.399  0.055  1.000
  S26  S2-  0.399  0.399  0.255  1.000
  S26  S2-  0.399  0.399  0.455  1.000
  S26  S2-  0.399  0.399  0.655  1.000
  S26  S2-  0.399  0.399  0.855  1.000
  S26  S2-  0.399  0.599  0.055  1.000
  S26  S2-  0.399  0.599  0.255  1.000
  S26  S2-  0.399  0.599  0.455  1.000
  S26  S2-  0.399  0.599  0.655  1.000
  S26  S2-  0.399  0.599  0.855  1.000
  S26  S2-  0.399  0.799  0.055  1.000
  S26  S2-  0.399  0.799  0.255  1.000
  S26  S2-  0.399  0.799  0.455  1.000
  S26  S2-  0.399  0.799  0.655  1.000
  S26  S2-  0.399  0.799  0.855  1.000
  S26  S2-  0.399  0.999  0.055  1.000
  S26  S2-  0.399  0.999  0.255  1.000
  S26  S2-  0.399  0.999  0.455  1.000
  S26  S2-  0.399  0.999  0.655  1.000
  S26  S2-  0.399  0.999  0.855  1.000
  S26  S2-  0.599  0.199  0.055  1.000
  S26  S2-  0.599  0.199  0.255  1.000
  S26  S2-  0.599  0.199  0.455  1.000
  S26  S2-  0.599  0.199  0.655  1.000
  S26  S2-  0.599  0.199  0.855  1.000
  S26  S2-  0.599  0.399  0.055  1.000
  S26  S2-  0.599  0.399  0.255  1.000
  S26  S2-  0.599  0.399  0.455  1.000
  S26  S2-  0.599  0.399  0.655  1.000
  S26  S2-  0.599  0.399  0.855  1.000
  S26  S2-  0.599  0.599  0.055  1.000
  S26  S2-  0.599  0.599  0.255  1.000
  S26  S2-  0.599  0.599  0.455  1.000
  S26  S2-  0.599  0.599  0.655  1.000
  S26  S2-  0.599  0.599  0.855  1.000
  S26  S2-  0.599  0.799  0.055  1.000
  S26  S2-  0.599  0.799  0.255  1.000
  S26  S2-  0.599  0.799  0.455  1.000
  S26  S2-  0.599  0.799  0.655  1.000
  S26  S2-  0.599  0.799  0.855  1.000
  S26  S2-  0.599  0.999  0.055  1.000
  S26  S2-  0.599  0.999  0.255  1.000
  S26  S2-  0.599  0.999  0.455  1.000
  S26  S2-  0.599  0.999  0.655  1.000
  S26  S2-  0.599  0.999  0.855  1.000
  S26  S2-  0.799  0.199  0.055  1.000
  S26  S2-  0.799  0.199  0.255  1.000
  S26  S2-  0.799  0.199  0.455  1.000
  S26  S2-  0.799  0.199  0.655  1.000
  S26  S2-  0.799  0.199  0.855  1.000
  S26  S2-  0.799  0.399  0.055  1.000
  S26  S2-  0.799  0.399  0.255  1.000
  S26  S2-  0.799  0.399  0.455  1.000
  S26  S2-  0.799  0.399  0.655  1.000
  S26  S2-  0.799  0.399  0.855  1.000
  S26  S2-  0.799  0.599  0.055  1.000
  S26  S2-  0.799  0.599  0.255  1.000
  S26  S2-  0.799  0.599  0.455  1.000
  S26  S2-  0.799  0.599  0.655  1.000
  S26  S2-  0.799  0.599  0.855  1.000
  S26  S2-  0.799  0.799  0.055  1.000
  S26  S2-  0.799  0.799  0.255  1.000
  S26  S2-  0.799  0.799  0.455  1.000
  S26  S2-  0.799  0.799  0.655  1.000
  S26  S2-  0.799  0.799  0.855  1.000
  S26  S2-  0.799  0.999  0.055  1.000
  S26  S2-  0.799  0.999  0.255  1.000
  S26  S2-  0.799  0.999  0.455  1.000
  S26  S2-  0.799  0.999  0.655  1.000
  S26  S2-  0.799  0.999  0.855  1.000
  S26  S2-  0.999  0.199  0.055  1.000
  S26  S2-  0.999  0.199  0.255  1.000
  S26  S2-  0.999  0.199  0.455  1.000
  S26  S2-  0.999  0.199  0.655  1.000
  S26  S2-  0.999  0.199  0.855  1.000
  S26  S2-  0.999  0.399  0.055  1.000
  S26  S2-  0.999  0.399  0.255  1.000
  S26  S2-  0.999  0.399  0.455  1.000
  S26  S2-  0.999  0.399  0.655  1.000
  S26  S2-  0.999  0.399  0.855  1.000
  S26  S2-  0.999  0.599  0.055  1.000
  S26  S2-  0.999  0.599  0.255  1.000
  S26  S2-  0.999  0.599  0.455  1.000
  S26  S2-  0.999  0.599  0.655  1.000
  S26  S2-  0.999  0.599  0.855  1.000
  S26  S2-  0.999  0.799  0.055  1.000
  S26  S2-  0.999  0.799  0.255  1.000
  S26  S2-  0.999  0.799  0.455  1.000
  S26  S2-  0.999  0.799  0.655  1.000
  S26  S2-  0.999  0.799  0.855  1.000
  S26  S2-  0.999  0.999  0.055  1.000
  S26  S2-  0.999  0.999  0.255  1.000
  S26  S2-  0.999  0.999  0.455  1.000
  S26  S2-  0.999  0.999  0.655  1.000
  S26  S2-  0.999  0.999  0.855  1.000
  S27  S2-  0.000  0.000  0.091  1.000
  S27  S2-  0.000  0.000  0.291  1.000
  S27  S2-  0.000  0.000  0.491  1.000
  S27  S2-  0.000  0.000  0.691  1.000
  S27  S2-  0.000  0.000  0.891  1.000
  S27  S2-  0.000  0.200  0.091  1.000
  S27  S2-  0.000  0.200  0.291  1.000
  S27  S2-  0.000  0.200  0.491  1.000
  S27  S2-  0.000  0.200  0.691  1.000
  S27  S2-  0.000  0.200  0.891  1.000
  S27  S2-  0.000  0.400  0.091  1.000
  S27  S2-  0.000  0.400  0.291  1.000
  S27  S2-  0.000  0.400  0.491  1.000
  S27  S2-  0.000  0.400  0.691  1.000
  S27  S2-  0.000  0.400  0.891  1.000
  S27  S2-  0.000  0.600  0.091  1.000
  S27  S2-  0.000  0.600  0.291  1.000
  S27  S2-  0.000  0.600  0.491  1.000
  S27  S2-  0.000  0.600  0.691  1.000
  S27  S2-  0.000  0.600  0.891  1.000
  S27  S2-  0.000  0.800  0.091  1.000
  S27  S2-  0.000  0.800  0.291  1.000
  S27  S2-  0.000  0.800  0.491  1.000
  S27  S2-  0.000  0.800  0.691  1.000
  S27  S2-  0.000  0.800  0.891  1.000
  S27  S2-  0.200  0.000  0.091  1.000
  S27  S2-  0.200  0.000  0.291  1.000
  S27  S2-  0.200  0.000  0.491  1.000
  S27  S2-  0.200  0.000  0.691  1.000
  S27  S2-  0.200  0.000  0.891  1.000
  S27  S2-  0.200  0.200  0.091  1.000
  S27  S2-  0.200  0.200  0.291  1.000
  S27  S2-  0.200  0.200  0.491  1.000
  S27  S2-  0.200  0.200  0.691  1.000
  S27  S2-  0.200  0.200  0.891  1.000
  S27  S2-  0.200  0.400  0.091  1.000
  S27  S2-  0.200  0.400  0.291  1.000
  S27  S2-  0.200  0.400  0.491  1.000
  S27  S2-  0.200  0.400  0.691  1.000
  S27  S2-  0.200  0.400  0.891  1.000
  S27  S2-  0.200  0.600  0.091  1.000
  S27  S2-  0.200  0.600  0.291  1.000
  S27  S2-  0.200  0.600  0.491  1.000
  S27  S2-  0.200  0.600  0.691  1.000
  S27  S2-  0.200  0.600  0.891  1.000
  S27  S2-  0.200  0.800  0.091  1.000
  S27  S2-  0.200  0.800  0.291  1.000
  S27  S2-  0.200  0.800  0.491  1.000
  S27  S2-  0.200  0.800  0.691  1.000
  S27  S2-  0.200  0.800  0.891  1.000
  S27  S2-  0.400  0.000  0.091  1.000
  S27  S2-  0.400  0.000  0.291  1.000
  S27  S2-  0.400  0.000  0.491  1.000
  S27  S2-  0.400  0.000  0.691  1.000
  S27  S2-  0.400  0.000  0.891  1.000
  S27  S2-  0.400  0.200  0.091  1.000
  S27  S2-  0.400  0.200  0.291  1.000
  S27  S2-  0.400  0.200  0.491  1.000
  S27  S2-  0.400  0.200  0.691  1.000
  S27  S2-  0.400  0.200  0.891  1.000
  S27  S2-  0.400  0.400  0.091  1.000
  S27  S2-  0.400  0.400  0.291  1.000
  S27  S2-  0.400  0.400  0.491  1.000
  S27  S2-  0.400  0.400  0.691  1.000
  S27  S2-  0.400  0.400  0.891  1.000
  S27  S2-  0.400  0.600  0.091  1.000
  S27  S2-  0.400  0.600  0.291  1.000
  S27  S2-  0.400  0.600  0.491  1.000
  S27  S2-  0.400  0.600  0.691  1.000
  S27  S2-  0.400  0.600  0.891  1.000
  S27  S2-  0.400  0.800  0.091  1.000
  S27  S2-  0.400  0.800  0.291  1.000
  S27  S2-  0.400  0.800  0.491  1.000
  S27  S2-  0.400  0.800  0.691  1.000
  S27  S2-  0.400  0.800  0.891  1.000
  S27  S2-  0.600  0.000  0.091  1.000
  S27  S2-  0.600  0.000  0.291  1.000
  S27  S2-  0.600  0.000  0.491  1.000
  S27  S2-  0.600  0.000  0.691  1.000
  S27  S2-  0.600  0.000  0.891  1.000
  S27  S2-  0.600  0.200  0.091  1.000
  S27  S2-  0.600  0.200  0.291  1.000
  S27  S2-  0.600  0.200  0.491  1.000
  S27  S2-  0.600  0.200  0.691  1.000
  S27  S2-  0.600  0.200  0.891  1.000
  S27  S2-  0.600  0.400  0.091  1.000
  S27  S2-  0.600  0.400  0.291  1.000
  S27  S2-  0.600  0.400  0.491  1.000
  S27  S2-  0.600  0.400  0.691  1.000
  S27  S2-  0.600  0.400  0.891  1.000
  S27  S2-  0.600  0.600  0.091  1.000
  S27  S2-  0.600  0.600  0.291  1.000
  S27  S2-  0.600  0.600  0.491  1.000
  S27  S2-  0.600  0.600  0.691  1.000
  S27  S2-  0.600  0.600  0.891  1.000
  S27  S2-  0.600  0.800  0.091  1.000
  S27  S2-  0.600  0.800  0.291  1.000
  S27  S2-  0.600  0.800  0.491  1.000
  S27  S2-  0.600  0.800  0.691  1.000
  S27  S2-  0.600  0.800  0.891  1.000
  S27  S2-  0.800  0.000  0.091  1.000
  S27  S2-  0.800  0.000  0.291  1.000
  S27  S2-  0.800  0.000  0.491  1.000
  S27  S2-  0.800  0.000  0.691  1.000
  S27  S2-  0.800  0.000  0.891  1.000
  S27  S2-  0.800  0.200  0.091  1.000
  S27  S2-  0.800  0.200  0.291  1.000
  S27  S2-  0.800  0.200  0.491  1.000
  S27  S2-  0.800  0.200  0.691  1.000
  S27  S2-  0.800  0.200  0.891  1.000
  S27  S2-  0.800  0.400  0.091  1.000
  S27  S2-  0.800  0.400  0.291  1.000
  S27  S2-  0.800  0.400  0.491  1.000
  S27  S2-  0.800  0.400  0.691  1.000
  S27  S2-  0.800  0.400  0.891  1.000
  S27  S2-  0.800  0.600  0.091  1.000
  S27  S2-  0.800  0.600  0.291  1.000
  S27  S2-  0.800  0.600  0.491  1.000
  S27  S2-  0.800  0.600  0.691  1.000
  S27  S2-  0.800  0.600  0.891  1.000
  S27  S2-  0.800  0.800  0.091  1.000
  S27  S2-  0.800  0.800  0.291  1.000
  S27  S2-  0.800  0.800  0.491  1.000
  S27  S2-  0.800  0.800  0.691  1.000
  S27  S2-  0.800  0.800  0.891  1.000
  S28  S2-  0.000  0.000  0.127  1.000
  S28  S2-  0.000  0.000  0.327  1.000
  S28  S2-  0.000  0.000  0.527  1.000
  S28  S2-  0.000  0.000  0.727  1.000
  S28  S2-  0.000  0.000  0.927  1.000
  S28  S2-  0.000  0.200  0.127  1.000
  S28  S2-  0.000  0.200  0.327  1.000
  S28  S2-  0.000  0.200  0.527  1.000
  S28  S2-  0.000  0.200  0.727  1.000
  S28  S2-  0.000  0.200  0.927  1.000
  S28  S2-  0.000  0.400  0.127  1.000
  S28  S2-  0.000  0.400  0.327  1.000
  S28  S2-  0.000  0.400  0.527  1.000
  S28  S2-  0.000  0.400  0.727  1.000
  S28  S2-  0.000  0.400  0.927  1.000
  S28  S2-  0.000  0.600  0.127  1.000
  S28  S2-  0.000  0.600  0.327  1.000
  S28  S2-  0.000  0.600  0.527  1.000
  S28  S2-  0.000  0.600  0.727  1.000
  S28  S2-  0.000  0.600  0.927  1.000
  S28  S2-  0.000  0.800  0.127  1.000
  S28  S2-  0.000  0.800  0.327  1.000
  S28  S2-  0.000  0.800  0.527  1.000
  S28  S2-  0.000  0.800  0.727  1.000
  S28  S2-  0.000  0.800  0.927  1.000
  S28  S2-  0.200  0.000  0.127  1.000
  S28  S2-  0.200  0.000  0.327  1.000
  S28  S2-  0.200  0.000  0.527  1.000
  S28  S2-  0.200  0.000  0.727  1.000
  S28  S2-  0.200  0.000  0.927  1.000
  S28  S2-  0.200  0.200  0.127  1.000
  S28  S2-  0.200  0.200  0.327  1.000
  S28  S2-  0.200  0.200  0.527  1.000
  S28  S2-  0.200  0.200  0.727  1.000
  S28  S2-  0.200  0.200  0.927  1.000
  S28  S2-  0.200  0.400  0.127  1.000
  S28  S2-  0.200  0.400  0.327  1.000
  S28  S2-  0.200  0.400  0.527  1.000
  S28  S2-  0.200  0.400  0.727  1.000
  S28  S2-  0.200  0.400  0.927  1.000
  S28  S2-  0.200  0.600  0.127  1.000
  S28  S2-  0.200  0.600  0.327  1.000
  S28  S2-  0.200  0.600  0.527  1.000
  S28  S2-  0.200  0.600  0.727  1.000
  S28  S2-  0.200  0.600  0.927  1.000
  S28  S2-  0.200  0.800  0.127  1.000
  S28  S2-  0.200  0.800  0.327  1.000
  S28  S2-  0.200  0.800  0.527  1.000
  S28  S2-  0.200  0.800  0.727  1.000
  S28  S2-  0.200  0.800  0.927  1.000
  S28  S2-  0.400  0.000  0.127  1.000
  S28  S2-  0.400  0.000  0.327  1.000
  S28  S2-  0.400  0.000  0.527  1.000
  S28  S2-  0.400  0.000  0.727  1.000
  S28  S2-  0.400  0.000  0.927  1.000
  S28  S2-  0.400  0.200  0.127  1.000
  S28  S2-  0.400  0.200  0.327  1.000
  S28  S2-  0.400  0.200  0.527  1.000
  S28  S2-  0.400  0.200  0.727  1.000
  S28  S2-  0.400  0.200  0.927  1.000
  S28  S2-  0.400  0.400  0.127  1.000
  S28  S2-  0.400  0.400  0.327  1.000
  S28  S2-  0.400  0.400  0.527  1.000
  S28  S2-  0.400  0.400  0.727  1.000
  S28  S2-  0.400  0.400  0.927  1.000
  S28  S2-  0.400  0.600  0.127  1.000
  S28  S2-  0.400  0.600  0.327  1.000
  S28  S2-  0.400  0.600  0.527  1.000
  S28  S2-  0.400  0.600  0.727  1.000
  S28  S2-  0.400  0.600  0.927  1.000
  S28  S2-  0.400  0.800  0.127  1.000
  S28  S2-  0.400  0.800  0.327  1.000
  S28  S2-  0.400  0.800  0.527  1.000
  S28  S2-  0.400  0.800  0.727  1.000
  S28  S2-  0.400  0.800  0.927  1.000
  S28  S2-  0.600  0.000  0.127  1.000
  S28  S2-  0.600  0.000  0.327  1.000
  S28  S2-  0.600  0.000  0.527  1.000
  S28  S2-  0.600  0.000  0.727  1.000
  S28  S2-  0.600  0.000  0.927  1.000
  S28  S2-  0.600  0.200  0.127  1.000
  S28  S2-  0.600  0.200  0.327  1.000
  S28  S2-  0.600  0.200  0.527  1.000
  S28  S2-  0.600  0.200  0.727  1.000
  S28  S2-  0.600  0.200  0.927  1.000
  S28  S2-  0.600  0.400  0.127  1.000
  S28  S2-  0.600  0.400  0.327  1.000
  S28  S2-  0.600  0.400  0.527  1.000
  S28  S2-  0.600  0.400  0.727  1.000
  S28  S2-  0.600  0.400  0.927  1.000
  S28  S2-  0.600  0.600  0.127  1.000
  S28  S2-  0.600  0.600  0.327  1.000
  S28  S2-  0.600  0.600  0.527  1.000
  S28  S2-  0.600  0.600  0.727  1.000
  S28  S2-  0.600  0.600  0.927  1.000
  S28  S2-  0.600  0.800  0.127  1.000
  S28  S2-  0.600  0.800  0.327  1.000
  S28  S2-  0.600  0.800  0.527  1.000
  S28  S2-  0.600  0.800  0.727  1.000
  S28  S2-  0.600  0.800  0.927  1.000
  S28  S2-  0.800  0.000  0.127  1.000
  S28  S2-  0.800  0.000  0.327  1.000
  S28  S2-  0.800  0.000  0.527  1.000
  S28  S2-  0.800  0.000  0.727  1.000
  S28  S2-  0.800  0.000  0.927  1.000
  S28  S2-  0.800  0.200  0.127  1.000
  S28  S2-  0.800  0.200  0.327  1.000
  S28  S2-  0.800  0.200  0.527  1.000
  S28  S2-  0.800  0.200  0.727  1.000
  S28  S2-  0.800  0.200  0.927  1.000
  S28  S2-  0.800  0.400  0.127  1.000
  S28  S2-  0.800  0.400  0.327  1.000
  S28  S2-  0.800  0.400  0.527  1.000
  S28  S2-  0.800  0.400  0.727  1.000
  S28  S2-  0.800  0.400  0.927  1.000
  S28  S2-  0.800  0.600  0.127  1.000
  S28  S2-  0.800  0.600  0.327  1.000
  S28  S2-  0.800  0.600  0.527  1.000
  S28  S2-  0.800  0.600  0.727  1.000
  S28  S2-  0.800  0.600  0.927  1.000
  S28  S2-  0.800  0.800  0.127  1.000
  S28  S2-  0.800  0.800  0.327  1.000
  S28  S2-  0.800  0.800  0.527  1.000
  S28  S2-  0.800  0.800  0.727  1.000
  S28  S2-  0.800  0.800  0.927  1.000
  S29  S2-  0.000  0.000  0.145  1.000
  S29  S2-  0.000  0.000  0.345  1.000
  S29  S2-  0.000  0.000  0.545  1.000
  S29  S2-  0.000  0.000  0.745  1.000
  S29  S2-  0.000  0.000  0.945  1.000
  S29  S2-  0.000  0.200  0.145  1.000
  S29  S2-  0.000  0.200  0.345  1.000
  S29  S2-  0.000  0.200  0.545  1.000
  S29  S2-  0.000  0.200  0.745  1.000
  S29  S2-  0.000  0.200  0.945  1.000
  S29  S2-  0.000  0.400  0.145  1.000
  S29  S2-  0.000  0.400  0.345  1.000
  S29  S2-  0.000  0.400  0.545  1.000
  S29  S2-  0.000  0.400  0.745  1.000
  S29  S2-  0.000  0.400  0.945  1.000
  S29  S2-  0.000  0.600  0.145  1.000
  S29  S2-  0.000  0.600  0.345  1.000
  S29  S2-  0.000  0.600  0.545  1.000
  S29  S2-  0.000  0.600  0.745  1.000
  S29  S2-  0.000  0.600  0.945  1.000
  S29  S2-  0.000  0.800  0.145  1.000
  S29  S2-  0.000  0.800  0.345  1.000
  S29  S2-  0.000  0.800  0.545  1.000
  S29  S2-  0.000  0.800  0.745  1.000
  S29  S2-  0.000  0.800  0.945  1.000
  S29  S2-  0.200  0.000  0.145  1.000
  S29  S2-  0.200  0.000  0.345  1.000
  S29  S2-  0.200  0.000  0.545  1.000
  S29  S2-  0.200  0.000  0.745  1.000
  S29  S2-  0.200  0.000  0.945  1.000
  S29  S2-  0.200  0.200  0.145  1.000
  S29  S2-  0.200  0.200  0.345  1.000
  S29  S2-  0.200  0.200  0.545  1.000
  S29  S2-  0.200  0.200  0.745  1.000
  S29  S2-  0.200  0.200  0.945  1.000
  S29  S2-  0.200  0.400  0.145  1.000
  S29  S2-  0.200  0.400  0.345  1.000
  S29  S2-  0.200  0.400  0.545  1.000
  S29  S2-  0.200  0.400  0.745  1.000
  S29  S2-  0.200  0.400  0.945  1.000
  S29  S2-  0.200  0.600  0.145  1.000
  S29  S2-  0.200  0.600  0.345  1.000
  S29  S2-  0.200  0.600  0.545  1.000
  S29  S2-  0.200  0.600  0.745  1.000
  S29  S2-  0.200  0.600  0.945  1.000
  S29  S2-  0.200  0.800  0.145  1.000
  S29  S2-  0.200  0.800  0.345  1.000
  S29  S2-  0.200  0.800  0.545  1.000
  S29  S2-  0.200  0.800  0.745  1.000
  S29  S2-  0.200  0.800  0.945  1.000
  S29  S2-  0.400  0.000  0.145  1.000
  S29  S2-  0.400  0.000  0.345  1.000
  S29  S2-  0.400  0.000  0.545  1.000
  S29  S2-  0.400  0.000  0.745  1.000
  S29  S2-  0.400  0.000  0.945  1.000
  S29  S2-  0.400  0.200  0.145  1.000
  S29  S2-  0.400  0.200  0.345  1.000
  S29  S2-  0.400  0.200  0.545  1.000
  S29  S2-  0.400  0.200  0.745  1.000
  S29  S2-  0.400  0.200  0.945  1.000
  S29  S2-  0.400  0.400  0.145  1.000
  S29  S2-  0.400  0.400  0.345  1.000
  S29  S2-  0.400  0.400  0.545  1.000
  S29  S2-  0.400  0.400  0.745  1.000
  S29  S2-  0.400  0.400  0.945  1.000
  S29  S2-  0.400  0.600  0.145  1.000
  S29  S2-  0.400  0.600  0.345  1.000
  S29  S2-  0.400  0.600  0.545  1.000
  S29  S2-  0.400  0.600  0.745  1.000
  S29  S2-  0.400  0.600  0.945  1.000
  S29  S2-  0.400  0.800  0.145  1.000
  S29  S2-  0.400  0.800  0.345  1.000
  S29  S2-  0.400  0.800  0.545  1.000
  S29  S2-  0.400  0.800  0.745  1.000
  S29  S2-  0.400  0.800  0.945  1.000
  S29  S2-  0.600  0.000  0.145  1.000
  S29  S2-  0.600  0.000  0.345  1.000
  S29  S2-  0.600  0.000  0.545  1.000
  S29  S2-  0.600  0.000  0.745  1.000
  S29  S2-  0.600  0.000  0.945  1.000
  S29  S2-  0.600  0.200  0.145  1.000
  S29  S2-  0.600  0.200  0.345  1.000
  S29  S2-  0.600  0.200  0.545  1.000
  S29  S2-  0.600  0.200  0.745  1.000
  S29  S2-  0.600  0.200  0.945  1.000
  S29  S2-  0.600  0.400  0.145  1.000
  S29  S2-  0.600  0.400  0.345  1.000
  S29  S2-  0.600  0.400  0.545  1.000
  S29  S2-  0.600  0.400  0.745  1.000
  S29  S2-  0.600  0.400  0.945  1.000
  S29  S2-  0.600  0.600  0.145  1.000
  S29  S2-  0.600  0.600  0.345  1.000
  S29  S2-  0.600  0.600  0.545  1.000
  S29  S2-  0.600  0.600  0.745  1.000
  S29  S2-  0.600  0.600  0.945  1.000
  S29  S2-  0.600  0.800  0.145  1.000
  S29  S2-  0.600  0.800  0.345  1.000
  S29  S2-  0.600  0.800  0.545  1.000
  S29  S2-  0.600  0.800  0.745  1.000
  S29  S2-  0.600  0.800  0.945  1.000
  S29  S2-  0.800  0.000  0.145  1.000
  S29  S2-  0.800  0.000  0.345  1.000
  S29  S2-  0.800  0.000  0.545  1.000
  S29  S2-  0.800  0.000  0.745  1.000
  S29  S2-  0.800  0.000  0.945  1.000
  S29  S2-  0.800  0.200  0.145  1.000
  S29  S2-  0.800  0.200  0.345  1.000
  S29  S2-  0.800  0.200  0.545  1.000
  S29  S2-  0.800  0.200  0.745  1.000
  S29  S2-  0.800  0.200  0.945  1.000
  S29  S2-  0.800  0.400  0.145  1.000
  S29  S2-  0.800  0.400  0.345  1.000
  S29  S2-  0.800  0.400  0.545  1.000
  S29  S2-  0.800  0.400  0.745  1.000
  S29  S2-  0.800  0.400  0.945  1.000
  S29  S2-  0.800  0.600  0.145  1.000
  S29  S2-  0.800  0.600  0.345  1.000
  S29  S2-  0.800  0.600  0.545  1.000
  S29  S2-  0.800  0.600  0.745  1.000
  S29  S2-  0.800  0.600  0.945  1.000
  S29  S2-  0.800  0.800  0.145  1.000
  S29  S2-  0.800  0.800  0.345  1.000
  S29  S2-  0.800  0.800  0.545  1.000
  S29  S2-  0.800  0.800  0.745  1.000
  S29  S2-  0.800  0.800  0.945  1.000
  S30  S2-  0.000  0.000  0.109  1.000
  S30  S2-  0.000  0.000  0.309  1.000
  S30  S2-  0.000  0.000  0.509  1.000
  S30  S2-  0.000  0.000  0.709  1.000
  S30  S2-  0.000  0.000  0.909  1.000
  S30  S2-  0.000  0.200  0.109  1.000
  S30  S2-  0.000  0.200  0.309  1.000
  S30  S2-  0.000  0.200  0.509  1.000
  S30  S2-  0.000  0.200  0.709  1.000
  S30  S2-  0.000  0.200  0.909  1.000
  S30  S2-  0.000  0.400  0.109  1.000
  S30  S2-  0.000  0.400  0.309  1.000
  S30  S2-  0.000  0.400  0.509  1.000
  S30  S2-  0.000  0.400  0.709  1.000
  S30  S2-  0.000  0.400  0.909  1.000
  S30  S2-  0.000  0.600  0.109  1.000
  S30  S2-  0.000  0.600  0.309  1.000
  S30  S2-  0.000  0.600  0.509  1.000
  S30  S2-  0.000  0.600  0.709  1.000
  S30  S2-  0.000  0.600  0.909  1.000
  S30  S2-  0.000  0.800  0.109  1.000
  S30  S2-  0.000  0.800  0.309  1.000
  S30  S2-  0.000  0.800  0.509  1.000
  S30  S2-  0.000  0.800  0.709  1.000
  S30  S2-  0.000  0.800  0.909  1.000
  S30  S2-  0.200  0.000  0.109  1.000
  S30  S2-  0.200  0.000  0.309  1.000
  S30  S2-  0.200  0.000  0.509  1.000
  S30  S2-  0.200  0.000  0.709  1.000
  S30  S2-  0.200  0.000  0.909  1.000
  S30  S2-  0.200  0.200  0.109  1.000
  S30  S2-  0.200  0.200  0.309  1.000
  S30  S2-  0.200  0.200  0.509  1.000
  S30  S2-  0.200  0.200  0.709  1.000
  S30  S2-  0.200  0.200  0.909  1.000
  S30  S2-  0.200  0.400  0.109  1.000
  S30  S2-  0.200  0.400  0.309  1.000
  S30  S2-  0.200  0.400  0.509  1.000
  S30  S2-  0.200  0.400  0.709  1.000
  S30  S2-  0.200  0.400  0.909  1.000
  S30  S2-  0.200  0.600  0.109  1.000
  S30  S2-  0.200  0.600  0.309  1.000
  S30  S2-  0.200  0.600  0.509  1.000
  S30  S2-  0.200  0.600  0.709  1.000
  S30  S2-  0.200  0.600  0.909  1.000
  S30  S2-  0.200  0.800  0.109  1.000
  S30  S2-  0.200  0.800  0.309  1.000
  S30  S2-  0.200  0.800  0.509  1.000
  S30  S2-  0.200  0.800  0.709  1.000
  S30  S2-  0.200  0.800  0.909  1.000
  S30  S2-  0.400  0.000  0.109  1.000
  S30  S2-  0.400  0.000  0.309  1.000
  S30  S2-  0.400  0.000  0.509  1.000
  S30  S2-  0.400  0.000  0.709  1.000
  S30  S2-  0.400  0.000  0.909  1.000
  S30  S2-  0.400  0.200  0.109  1.000
  S30  S2-  0.400  0.200  0.309  1.000
  S30  S2-  0.400  0.200  0.509  1.000
  S30  S2-  0.400  0.200  0.709  1.000
  S30  S2-  0.400  0.200  0.909  1.000
  S30  S2-  0.400  0.400  0.109  1.000
  S30  S2-  0.400  0.400  0.309  1.000
  S30  S2-  0.400  0.400  0.509  1.000
  S30  S2-  0.400  0.400  0.709  1.000
  S30  S2-  0.400  0.400  0.909  1.000
  S30  S2-  0.400  0.600  0.109  1.000
  S30  S2-  0.400  0.600  0.309  1.000
  S30  S2-  0.400  0.600  0.509  1.000
  S30  S2-  0.400  0.600  0.709  1.000
  S30  S2-  0.400  0.600  0.909  1.000
  S30  S2-  0.400  0.800  0.109  1.000
  S30  S2-  0.400  0.800  0.309  1.000
  S30  S2-  0.400  0.800  0.509  1.000
  S30  S2-  0.400  0.800  0.709  1.000
  S30  S2-  0.400  0.800  0.909  1.000
  S30  S2-  0.600  0.000  0.109  1.000
  S30  S2-  0.600  0.000  0.309  1.000
  S30  S2-  0.600  0.000  0.509  1.000
  S30  S2-  0.600  0.000  0.709  1.000
  S30  S2-  0.600  0.000  0.909  1.000
  S30  S2-  0.600  0.200  0.109  1.000
  S30  S2-  0.600  0.200  0.309  1.000
  S30  S2-  0.600  0.200  0.509  1.000
  S30  S2-  0.600  0.200  0.709  1.000
  S30  S2-  0.600  0.200  0.909  1.000
  S30  S2-  0.600  0.400  0.109  1.000
  S30  S2-  0.600  0.400  0.309  1.000
  S30  S2-  0.600  0.400  0.509  1.000
  S30  S2-  0.600  0.400  0.709  1.000
  S30  S2-  0.600  0.400  0.909  1.000
  S30  S2-  0.600  0.600  0.109  1.000
  S30  S2-  0.600  0.600  0.309  1.000
  S30  S2-  0.600  0.600  0.509  1.000
  S30  S2-  0.600  0.600  0.709  1.000
  S30  S2-  0.600  0.600  0.909  1.000
  S30  S2-  0.600  0.800  0.109  1.000
  S30  S2-  0.600  0.800  0.309  1.000
  S30  S2-  0.600  0.800  0.509  1.000
  S30  S2-  0.600  0.800  0.709  1.000
  S30  S2-  0.600  0.800  0.909  1.000
  S30  S2-  0.800  0.000  0.109  1.000
  S30  S2-  0.800  0.000  0.309  1.000
  S30  S2-  0.800  0.000  0.509  1.000
  S30  S2-  0.800  0.000  0.709  1.000
  S30  S2-  0.800  0.000  0.909  1.000
  S30  S2-  0.800  0.200  0.109  1.000
  S30  S2-  0.800  0.200  0.309  1.000
  S30  S2-  0.800  0.200  0.509  1.000
  S30  S2-  0.800  0.200  0.709  1.000
  S30  S2-  0.800  0.200  0.909  1.000
  S30  S2-  0.800  0.400  0.109  1.000
  S30  S2-  0.800  0.400  0.309  1.000
  S30  S2-  0.800  0.400  0.509  1.000
  S30  S2-  0.800  0.400  0.709  1.000
  S30  S2-  0.800  0.400  0.909  1.000
  S30  S2-  0.800  0.600  0.109  1.000
  S30  S2-  0.800  0.600  0.309  1.000
  S30  S2-  0.800  0.600  0.509  1.000
  S30  S2-  0.800  0.600  0.709  1.000
  S30  S2-  0.800  0.600  0.909  1.000
  S30  S2-  0.800  0.800  0.109  1.000
  S30  S2-  0.800  0.800  0.309  1.000
  S30  S2-  0.800  0.800  0.509  1.000
  S30  S2-  0.800  0.800  0.709  1.000
  S30  S2-  0.800  0.800  0.909  1.000
  S31  S2-  0.000  0.000  0.164  1.000
  S31  S2-  0.000  0.000  0.364  1.000
  S31  S2-  0.000  0.000  0.564  1.000
  S31  S2-  0.000  0.000  0.764  1.000
  S31  S2-  0.000  0.000  0.964  1.000
  S31  S2-  0.000  0.200  0.164  1.000
  S31  S2-  0.000  0.200  0.364  1.000
  S31  S2-  0.000  0.200  0.564  1.000
  S31  S2-  0.000  0.200  0.764  1.000
  S31  S2-  0.000  0.200  0.964  1.000
  S31  S2-  0.000  0.400  0.164  1.000
  S31  S2-  0.000  0.400  0.364  1.000
  S31  S2-  0.000  0.400  0.564  1.000
  S31  S2-  0.000  0.400  0.764  1.000
  S31  S2-  0.000  0.400  0.964  1.000
  S31  S2-  0.000  0.600  0.164  1.000
  S31  S2-  0.000  0.600  0.364  1.000
  S31  S2-  0.000  0.600  0.564  1.000
  S31  S2-  0.000  0.600  0.764  1.000
  S31  S2-  0.000  0.600  0.964  1.000
  S31  S2-  0.000  0.800  0.164  1.000
  S31  S2-  0.000  0.800  0.364  1.000
  S31  S2-  0.000  0.800  0.564  1.000
  S31  S2-  0.000  0.800  0.764  1.000
  S31  S2-  0.000  0.800  0.964  1.000
  S31  S2-  0.200  0.000  0.164  1.000
  S31  S2-  0.200  0.000  0.364  1.000
  S31  S2-  0.200  0.000  0.564  1.000
  S31  S2-  0.200  0.000  0.764  1.000
  S31  S2-  0.200  0.000  0.964  1.000
  S31  S2-  0.200  0.200  0.164  1.000
  S31  S2-  0.200  0.200  0.364  1.000
  S31  S2-  0.200  0.200  0.564  1.000
  S31  S2-  0.200  0.200  0.764  1.000
  S31  S2-  0.200  0.200  0.964  1.000
  S31  S2-  0.200  0.400  0.164  1.000
  S31  S2-  0.200  0.400  0.364  1.000
  S31  S2-  0.200  0.400  0.564  1.000
  S31  S2-  0.200  0.400  0.764  1.000
  S31  S2-  0.200  0.400  0.964  1.000
  S31  S2-  0.200  0.600  0.164  1.000
  S31  S2-  0.200  0.600  0.364  1.000
  S31  S2-  0.200  0.600  0.564  1.000
  S31  S2-  0.200  0.600  0.764  1.000
  S31  S2-  0.200  0.600  0.964  1.000
  S31  S2-  0.200  0.800  0.164  1.000
  S31  S2-  0.200  0.800  0.364  1.000
  S31  S2-  0.200  0.800  0.564  1.000
  S31  S2-  0.200  0.800  0.764  1.000
  S31  S2-  0.200  0.800  0.964  1.000
  S31  S2-  0.400  0.000  0.164  1.000
  S31  S2-  0.400  0.000  0.364  1.000
  S31  S2-  0.400  0.000  0.564  1.000
  S31  S2-  0.400  0.000  0.764  1.000
  S31  S2-  0.400  0.000  0.964  1.000
  S31  S2-  0.400  0.200  0.164  1.000
  S31  S2-  0.400  0.200  0.364  1.000
  S31  S2-  0.400  0.200  0.564  1.000
  S31  S2-  0.400  0.200  0.764  1.000
  S31  S2-  0.400  0.200  0.964  1.000
  S31  S2-  0.400  0.400  0.164  1.000
  S31  S2-  0.400  0.400  0.364  1.000
  S31  S2-  0.400  0.400  0.564  1.000
  S31  S2-  0.400  0.400  0.764  1.000
  S31  S2-  0.400  0.400  0.964  1.000
  S31  S2-  0.400  0.600  0.164  1.000
  S31  S2-  0.400  0.600  0.364  1.000
  S31  S2-  0.400  0.600  0.564  1.000
  S31  S2-  0.400  0.600  0.764  1.000
  S31  S2-  0.400  0.600  0.964  1.000
  S31  S2-  0.400  0.800  0.164  1.000
  S31  S2-  0.400  0.800  0.364  1.000
  S31  S2-  0.400  0.800  0.564  1.000
  S31  S2-  0.400  0.800  0.764  1.000
  S31  S2-  0.400  0.800  0.964  1.000
  S31  S2-  0.600  0.000  0.164  1.000
  S31  S2-  0.600  0.000  0.364  1.000
  S31  S2-  0.600  0.000  0.564  1.000
  S31  S2-  0.600  0.000  0.764  1.000
  S31  S2-  0.600  0.000  0.964  1.000
  S31  S2-  0.600  0.200  0.164  1.000
  S31  S2-  0.600  0.200  0.364  1.000
  S31  S2-  0.600  0.200  0.564  1.000
  S31  S2-  0.600  0.200  0.764  1.000
  S31  S2-  0.600  0.200  0.964  1.000
  S31  S2-  0.600  0.400  0.164  1.000
  S31  S2-  0.600  0.400  0.364  1.000
  S31  S2-  0.600  0.400  0.564  1.000
  S31  S2-  0.600  0.400  0.764  1.000
  S31  S2-  0.600  0.400  0.964  1.000
  S31  S2-  0.600  0.600  0.164  1.000
  S31  S2-  0.600  0.600  0.364  1.000
  S31  S2-  0.600  0.600  0.564  1.000
  S31  S2-  0.600  0.600  0.764  1.000
  S31  S2-  0.600  0.600  0.964  1.000
  S31  S2-  0.600  0.800  0.164  1.000
  S31  S2-  0.600  0.800  0.364  1.000
  S31  S2-  0.600  0.800  0.564  1.000
  S31  S2-  0.600  0.800  0.764  1.000
  S31  S2-  0.600  0.800  0.964  1.000
  S31  S2-  0.800  0.000  0.164  1.000
  S31  S2-  0.800  0.000  0.364  1.000
  S31  S2-  0.800  0.000  0.564  1.000
  S31  S2-  0.800  0.000  0.764  1.000
  S31  S2-  0.800  0.000  0.964  1.000
  S31  S2-  0.800  0.200  0.164  1.000
  S31  S2-  0.800  0.200  0.364  1.000
  S31  S2-  0.800  0.200  0.564  1.000
  S31  S2-  0.800  0.200  0.764  1.000
  S31  S2-  0.800  0.200  0.964  1.000
  S31  S2-  0.800  0.400  0.164  1.000
  S31  S2-  0.800  0.400  0.364  1.000
  S31  S2-  0.800  0.400  0.564  1.000
  S31  S2-  0.800  0.400  0.764  1.000
  S31  S2-  0.800  0.400  0.964  1.000
  S31  S2-  0.800  0.600  0.164  1.000
  S31  S2-  0.800  0.600  0.364  1.000
  S31  S2-  0.800  0.600  0.564  1.000
  S31  S2-  0.800  0.600  0.764  1.000
  S31  S2-  0.800  0.600  0.964  1.000
  S31  S2-  0.800  0.800  0.164  1.000
  S31  S2-  0.800  0.800  0.364  1.000
  S31  S2-  0.800  0.800  0.564  1.000
  S31  S2-  0.800  0.800  0.764  1.000
  S31  S2-  0.800  0.800  0.964  1.000
  S32  S2-  0.200  0.200  0.182  1.000
  S32  S2-  0.200  0.200  0.382  1.000
  S32  S2-  0.200  0.200  0.582  1.000
  S32  S2-  0.200  0.200  0.782  1.000
  S32  S2-  0.200  0.200  0.982  1.000
  S32  S2-  0.200  0.400  0.182  1.000
  S32  S2-  0.200  0.400  0.382  1.000
  S32  S2-  0.200  0.400  0.582  1.000
  S32  S2-  0.200  0.400  0.782  1.000
  S32  S2-  0.200  0.400  0.982  1.000
  S32  S2-  0.200  0.600  0.182  1.000
  S32  S2-  0.200  0.600  0.382  1.000
  S32  S2-  0.200  0.600  0.582  1.000
  S32  S2-  0.200  0.600  0.782  1.000
  S32  S2-  0.200  0.600  0.982  1.000
  S32  S2-  0.200  0.800  0.182  1.000
  S32  S2-  0.200  0.800  0.382  1.000
  S32  S2-  0.200  0.800  0.582  1.000
  S32  S2-  0.200  0.800  0.782  1.000
  S32  S2-  0.200  0.800  0.982  1.000
  S32  S2-  0.200  1.000  0.182  1.000
  S32  S2-  0.200  1.000  0.382  1.000
  S32  S2-  0.200  1.000  0.582  1.000
  S32  S2-  0.200  1.000  0.782  1.000
  S32  S2-  0.200  1.000  0.982  1.000
  S32  S2-  0.400  0.200  0.182  1.000
  S32  S2-  0.400  0.200  0.382  1.000
  S32  S2-  0.400  0.200  0.582  1.000
  S32  S2-  0.400  0.200  0.782  1.000
  S32  S2-  0.400  0.200  0.982  1.000
  S32  S2-  0.400  0.400  0.182  1.000
  S32  S2-  0.400  0.400  0.382  1.000
  S32  S2-  0.400  0.400  0.582  1.000
  S32  S2-  0.400  0.400  0.782  1.000
  S32  S2-  0.400  0.400  0.982  1.000
  S32  S2-  0.400  0.600  0.182  1.000
  S32  S2-  0.400  0.600  0.382  1.000
  S32  S2-  0.400  0.600  0.582  1.000
  S32  S2-  0.400  0.600  0.782  1.000
  S32  S2-  0.400  0.600  0.982  1.000
  S32  S2-  0.400  0.800  0.182  1.000
  S32  S2-  0.400  0.800  0.382  1.000
  S32  S2-  0.400  0.800  0.582  1.000
  S32  S2-  0.400  0.800  0.782  1.000
  S32  S2-  0.400  0.800  0.982  1.000
  S32  S2-  0.400  1.000  0.182  1.000
  S32  S2-  0.400  1.000  0.382  1.000
  S32  S2-  0.400  1.000  0.582  1.000
  S32  S2-  0.400  1.000  0.782  1.000
  S32  S2-  0.400  1.000  0.982  1.000
  S32  S2-  0.600  0.200  0.182  1.000
  S32  S2-  0.600  0.200  0.382  1.000
  S32  S2-  0.600  0.200  0.582  1.000
  S32  S2-  0.600  0.200  0.782  1.000
  S32  S2-  0.600  0.200  0.982  1.000
  S32  S2-  0.600  0.400  0.182  1.000
  S32  S2-  0.600  0.400  0.382  1.000
  S32  S2-  0.600  0.400  0.582  1.000
  S32  S2-  0.600  0.400  0.782  1.000
  S32  S2-  0.600  0.400  0.982  1.000
  S32  S2-  0.600  0.600  0.182  1.000
  S32  S2-  0.600  0.600  0.382  1.000
  S32  S2-  0.600  0.600  0.582  1.000
  S32  S2-  0.600  0.600  0.782  1.000
  S32  S2-  0.600  0.600  0.982  1.000
  S32  S2-  0.600  0.800  0.182  1.000
  S32  S2-  0.600  0.800  0.382  1.000
  S32  S2-  0.600  0.800  0.582  1.000
  S32  S2-  0.600  0.800  0.782  1.000
  S32  S2-  0.600  0.800  0.982  1.000
  S32  S2-  0.600  1.000  0.182  1.000
  S32  S2-  0.600  1.000  0.382  1.000
  S32  S2-  0.600  1.000  0.582  1.000
  S32  S2-  0.600  1.000  0.782  1.000
  S32  S2-  0.600  1.000  0.982  1.000
  S32  S2-  0.800  0.200  0.182  1.000
  S32  S2-  0.800  0.200  0.382  1.000
  S32  S2-  0.800  0.200  0.582  1.000
  S32  S2-  0.800  0.200  0.782  1.000
  S32  S2-  0.800  0.200  0.982  1.000
  S32  S2-  0.800  0.400  0.182  1.000
  S32  S2-  0.800  0.400  0.382  1.000
  S32  S2-  0.800  0.400  0.582  1.000
  S32  S2-  0.800  0.400  0.782  1.000
  S32  S2-  0.800  0.400  0.982  1.000
  S32  S2-  0.800  0.600  0.182  1.000
  S32  S2-  0.800  0.600  0.382  1.000
  S32  S2-  0.800  0.600  0.582  1.000
  S32  S2-  0.800  0.600  0.782  1.000
  S32  S2-  0.800  0.600  0.982  1.000
  S32  S2-  0.800  0.800  0.182  1.000
  S32  S2-  0.800  0.800  0.382  1.000
  S32  S2-  0.800  0.800  0.582  1.000
  S32  S2-  0.800  0.800  0.782  1.000
  S32  S2-  0.800  0.800  0.982  1.000
  S32  S2-  0.800  1.000  0.182  1.000
  S32  S2-  0.800  1.000  0.382  1.000
  S32  S2-  0.800  1.000  0.582  1.000
  S32  S2-  0.800  1.000  0.782  1.000
  S32  S2-  0.800  1.000  0.982  1.000
  S32  S2-  1.000  0.200  0.182  1.000
  S32  S2-  1.000  0.200  0.382  1.000
  S32  S2-  1.000  0.200  0.582  1.000
  S32  S2-  1.000  0.200  0.782  1.000
  S32  S2-  1.000  0.200  0.982  1.000
  S32  S2-  1.000  0.400  0.182  1.000
  S32  S2-  1.000  0.400  0.382  1.000
  S32  S2-  1.000  0.400  0.582  1.000
  S32  S2-  1.000  0.400  0.782  1.000
  S32  S2-  1.000  0.400  0.982  1.000
  S32  S2-  1.000  0.600  0.182  1.000
  S32  S2-  1.000  0.600  0.382  1.000
  S32  S2-  1.000  0.600  0.582  1.000
  S32  S2-  1.000  0.600  0.782  1.000
  S32  S2-  1.000  0.600  0.982  1.000
  S32  S2-  1.000  0.800  0.182  1.000
  S32  S2-  1.000  0.800  0.382  1.000
  S32  S2-  1.000  0.800  0.582  1.000
  S32  S2-  1.000  0.800  0.782  1.000
  S32  S2-  1.000  0.800  0.982  1.000
  S32  S2-  1.000  1.000  0.182  1.000
  S32  S2-  1.000  1.000  0.382  1.000
  S32  S2-  1.000  1.000  0.582  1.000
  S32  S2-  1.000  1.000  0.782  1.000
  S32  S2-  1.000  1.000  0.982  1.000

#end of data
