data_generated-by-softBV

_chemical_name_systematic         ''
_cell_length_a                    19.982
_cell_length_b                    19.982
_cell_length_c                    223.318
_cell_angle_alpha                 60.519
_cell_angle_beta                  60.518
_cell_angle_gamma                 59.995
_cell_volume                      63535.895
_cell_formula_units_Z             0
_symmetry_space_group_name_H-M    'P 1'
_symmetry_Int_Tables_number       1

loop_
  _symmetry_equiv_pos_site_id
  _symmetry_equiv_pos_as_xyz
    1    'x, y, z'

loop_
  _atom_type_symbol
  _atom_type_oxidation_number
  Li1+     1

loop_
  _atom_site_label
  _atom_site_type_symbol
  _atom_site_fract_x
  _atom_site_fract_y
  _atom_site_fract_z
  _atom_site_occupancy
  Li_i1  Li1+  0.046  0.046  0.024  0.001
  Li_i1  Li1+  0.046  0.046  0.224  0.001
  Li_i1  Li1+  0.046  0.046  0.424  0.001
  Li_i1  Li1+  0.046  0.046  0.624  0.001
  Li_i1  Li1+  0.046  0.046  0.824  0.001
  Li_i1  Li1+  0.046  0.246  0.024  0.001
  Li_i1  Li1+  0.046  0.246  0.224  0.001
  Li_i1  Li1+  0.046  0.246  0.424  0.001
  Li_i1  Li1+  0.046  0.246  0.624  0.001
  Li_i1  Li1+  0.046  0.246  0.824  0.001
  Li_i1  Li1+  0.046  0.446  0.024  0.001
  Li_i1  Li1+  0.046  0.446  0.224  0.001
  Li_i1  Li1+  0.046  0.446  0.424  0.001
  Li_i1  Li1+  0.046  0.446  0.624  0.001
  Li_i1  Li1+  0.046  0.446  0.824  0.001
  Li_i1  Li1+  0.046  0.646  0.024  0.001
  Li_i1  Li1+  0.046  0.646  0.224  0.001
  Li_i1  Li1+  0.046  0.646  0.424  0.001
  Li_i1  Li1+  0.046  0.646  0.624  0.001
  Li_i1  Li1+  0.046  0.646  0.824  0.001
  Li_i1  Li1+  0.046  0.846  0.024  0.001
  Li_i1  Li1+  0.046  0.846  0.224  0.001
  Li_i1  Li1+  0.046  0.846  0.424  0.001
  Li_i1  Li1+  0.046  0.846  0.624  0.001
  Li_i1  Li1+  0.046  0.846  0.824  0.001
  Li_i1  Li1+  0.246  0.046  0.024  0.001
  Li_i1  Li1+  0.246  0.046  0.224  0.001
  Li_i1  Li1+  0.246  0.046  0.424  0.001
  Li_i1  Li1+  0.246  0.046  0.624  0.001
  Li_i1  Li1+  0.246  0.046  0.824  0.001
  Li_i1  Li1+  0.246  0.246  0.024  0.001
  Li_i1  Li1+  0.246  0.246  0.224  0.001
  Li_i1  Li1+  0.246  0.246  0.424  0.001
  Li_i1  Li1+  0.246  0.246  0.624  0.001
  Li_i1  Li1+  0.246  0.246  0.824  0.001
  Li_i1  Li1+  0.246  0.446  0.024  0.001
  Li_i1  Li1+  0.246  0.446  0.224  0.001
  Li_i1  Li1+  0.246  0.446  0.424  0.001
  Li_i1  Li1+  0.246  0.446  0.624  0.001
  Li_i1  Li1+  0.246  0.446  0.824  0.001
  Li_i1  Li1+  0.246  0.646  0.024  0.001
  Li_i1  Li1+  0.246  0.646  0.224  0.001
  Li_i1  Li1+  0.246  0.646  0.424  0.001
  Li_i1  Li1+  0.246  0.646  0.624  0.001
  Li_i1  Li1+  0.246  0.646  0.824  0.001
  Li_i1  Li1+  0.246  0.846  0.024  0.001
  Li_i1  Li1+  0.246  0.846  0.224  0.001
  Li_i1  Li1+  0.246  0.846  0.424  0.001
  Li_i1  Li1+  0.246  0.846  0.624  0.001
  Li_i1  Li1+  0.246  0.846  0.824  0.001
  Li_i1  Li1+  0.446  0.046  0.024  0.001
  Li_i1  Li1+  0.446  0.046  0.224  0.001
  Li_i1  Li1+  0.446  0.046  0.424  0.001
  Li_i1  Li1+  0.446  0.046  0.624  0.001
  Li_i1  Li1+  0.446  0.046  0.824  0.001
  Li_i1  Li1+  0.446  0.246  0.024  0.001
  Li_i1  Li1+  0.446  0.246  0.224  0.001
  Li_i1  Li1+  0.446  0.246  0.424  0.001
  Li_i1  Li1+  0.446  0.246  0.624  0.001
  Li_i1  Li1+  0.446  0.246  0.824  0.001
  Li_i1  Li1+  0.446  0.446  0.024  0.001
  Li_i1  Li1+  0.446  0.446  0.224  0.001
  Li_i1  Li1+  0.446  0.446  0.424  0.001
  Li_i1  Li1+  0.446  0.446  0.624  0.001
  Li_i1  Li1+  0.446  0.446  0.824  0.001
  Li_i1  Li1+  0.446  0.646  0.024  0.001
  Li_i1  Li1+  0.446  0.646  0.224  0.001
  Li_i1  Li1+  0.446  0.646  0.424  0.001
  Li_i1  Li1+  0.446  0.646  0.624  0.001
  Li_i1  Li1+  0.446  0.646  0.824  0.001
  Li_i1  Li1+  0.446  0.846  0.024  0.001
  Li_i1  Li1+  0.446  0.846  0.224  0.001
  Li_i1  Li1+  0.446  0.846  0.424  0.001
  Li_i1  Li1+  0.446  0.846  0.624  0.001
  Li_i1  Li1+  0.446  0.846  0.824  0.001
  Li_i1  Li1+  0.646  0.046  0.024  0.001
  Li_i1  Li1+  0.646  0.046  0.224  0.001
  Li_i1  Li1+  0.646  0.046  0.424  0.001
  Li_i1  Li1+  0.646  0.046  0.624  0.001
  Li_i1  Li1+  0.646  0.046  0.824  0.001
  Li_i1  Li1+  0.646  0.246  0.024  0.001
  Li_i1  Li1+  0.646  0.246  0.224  0.001
  Li_i1  Li1+  0.646  0.246  0.424  0.001
  Li_i1  Li1+  0.646  0.246  0.624  0.001
  Li_i1  Li1+  0.646  0.246  0.824  0.001
  Li_i1  Li1+  0.646  0.446  0.024  0.001
  Li_i1  Li1+  0.646  0.446  0.224  0.001
  Li_i1  Li1+  0.646  0.446  0.424  0.001
  Li_i1  Li1+  0.646  0.446  0.624  0.001
  Li_i1  Li1+  0.646  0.446  0.824  0.001
  Li_i1  Li1+  0.646  0.646  0.024  0.001
  Li_i1  Li1+  0.646  0.646  0.224  0.001
  Li_i1  Li1+  0.646  0.646  0.424  0.001
  Li_i1  Li1+  0.646  0.646  0.624  0.001
  Li_i1  Li1+  0.646  0.646  0.824  0.001
  Li_i1  Li1+  0.646  0.846  0.024  0.001
  Li_i1  Li1+  0.646  0.846  0.224  0.001
  Li_i1  Li1+  0.646  0.846  0.424  0.001
  Li_i1  Li1+  0.646  0.846  0.624  0.001
  Li_i1  Li1+  0.646  0.846  0.824  0.001
  Li_i1  Li1+  0.846  0.046  0.024  0.001
  Li_i1  Li1+  0.846  0.046  0.224  0.001
  Li_i1  Li1+  0.846  0.046  0.424  0.001
  Li_i1  Li1+  0.846  0.046  0.624  0.001
  Li_i1  Li1+  0.846  0.046  0.824  0.001
  Li_i1  Li1+  0.846  0.246  0.024  0.001
  Li_i1  Li1+  0.846  0.246  0.224  0.001
  Li_i1  Li1+  0.846  0.246  0.424  0.001
  Li_i1  Li1+  0.846  0.246  0.624  0.001
  Li_i1  Li1+  0.846  0.246  0.824  0.001
  Li_i1  Li1+  0.846  0.446  0.024  0.001
  Li_i1  Li1+  0.846  0.446  0.224  0.001
  Li_i1  Li1+  0.846  0.446  0.424  0.001
  Li_i1  Li1+  0.846  0.446  0.624  0.001
  Li_i1  Li1+  0.846  0.446  0.824  0.001
  Li_i1  Li1+  0.846  0.646  0.024  0.001
  Li_i1  Li1+  0.846  0.646  0.224  0.001
  Li_i1  Li1+  0.846  0.646  0.424  0.001
  Li_i1  Li1+  0.846  0.646  0.624  0.001
  Li_i1  Li1+  0.846  0.646  0.824  0.001
  Li_i1  Li1+  0.846  0.846  0.024  0.001
  Li_i1  Li1+  0.846  0.846  0.224  0.001
  Li_i1  Li1+  0.846  0.846  0.424  0.001
  Li_i1  Li1+  0.846  0.846  0.624  0.001
  Li_i1  Li1+  0.846  0.846  0.824  0.001
  Li_i2  Li1+  0.267  0.796  0.352  0.001
  Li_i2  Li1+  0.067  0.196  0.952  0.001
  Li_i2  Li1+  0.396  0.667  0.552  0.001
  Li_i2  Li1+  0.267  0.796  0.552  0.001
  Li_i2  Li1+  0.196  0.467  0.952  0.001
  Li_i2  Li1+  0.396  0.667  0.752  0.001
  Li_i2  Li1+  0.267  0.796  0.752  0.001
  Li_i2  Li1+  0.067  0.596  0.952  0.001
  Li_i2  Li1+  0.396  0.667  0.952  0.001
  Li_i2  Li1+  0.267  0.796  0.952  0.001
  Li_i2  Li1+  0.067  0.196  0.352  0.001
  Li_i2  Li1+  0.396  0.867  0.152  0.001
  Li_i2  Li1+  0.267  0.996  0.152  0.001
  Li_i2  Li1+  0.196  0.667  0.152  0.001
  Li_i2  Li1+  0.396  0.867  0.352  0.001
  Li_i2  Li1+  0.267  0.996  0.352  0.001
  Li_i2  Li1+  0.067  0.796  0.152  0.001
  Li_i2  Li1+  0.396  0.867  0.552  0.001
  Li_i2  Li1+  0.267  0.996  0.552  0.001
  Li_i2  Li1+  0.196  0.267  0.152  0.001
  Li_i2  Li1+  0.396  0.867  0.752  0.001
  Li_i2  Li1+  0.267  0.996  0.752  0.001
  Li_i2  Li1+  0.196  0.667  0.352  0.001
  Li_i2  Li1+  0.396  0.867  0.952  0.001
  Li_i2  Li1+  0.267  0.996  0.952  0.001
  Li_i2  Li1+  0.067  0.796  0.352  0.001
  Li_i2  Li1+  0.596  0.067  0.152  0.001
  Li_i2  Li1+  0.467  0.196  0.152  0.001
  Li_i2  Li1+  0.067  0.396  0.152  0.001
  Li_i2  Li1+  0.596  0.067  0.352  0.001
  Li_i2  Li1+  0.467  0.196  0.352  0.001
  Li_i2  Li1+  0.196  0.667  0.552  0.001
  Li_i2  Li1+  0.596  0.067  0.552  0.001
  Li_i2  Li1+  0.467  0.196  0.552  0.001
  Li_i2  Li1+  0.067  0.796  0.552  0.001
  Li_i2  Li1+  0.596  0.067  0.752  0.001
  Li_i2  Li1+  0.467  0.196  0.752  0.001
  Li_i2  Li1+  0.067  0.196  0.152  0.001
  Li_i2  Li1+  0.596  0.067  0.952  0.001
  Li_i2  Li1+  0.467  0.196  0.952  0.001
  Li_i2  Li1+  0.196  0.667  0.752  0.001
  Li_i2  Li1+  0.596  0.267  0.152  0.001
  Li_i2  Li1+  0.467  0.396  0.152  0.001
  Li_i2  Li1+  0.067  0.796  0.752  0.001
  Li_i2  Li1+  0.596  0.267  0.352  0.001
  Li_i2  Li1+  0.467  0.396  0.352  0.001
  Li_i2  Li1+  0.196  0.267  0.352  0.001
  Li_i2  Li1+  0.596  0.267  0.552  0.001
  Li_i2  Li1+  0.467  0.396  0.552  0.001
  Li_i2  Li1+  0.196  0.667  0.952  0.001
  Li_i2  Li1+  0.596  0.267  0.752  0.001
  Li_i2  Li1+  0.467  0.396  0.752  0.001
  Li_i2  Li1+  0.067  0.796  0.952  0.001
  Li_i2  Li1+  0.596  0.267  0.952  0.001
  Li_i2  Li1+  0.467  0.396  0.952  0.001
  Li_i2  Li1+  0.067  0.396  0.352  0.001
  Li_i2  Li1+  0.596  0.467  0.152  0.001
  Li_i2  Li1+  0.467  0.596  0.152  0.001
  Li_i2  Li1+  0.196  0.867  0.152  0.001
  Li_i2  Li1+  0.596  0.467  0.352  0.001
  Li_i2  Li1+  0.467  0.596  0.352  0.001
  Li_i2  Li1+  0.067  0.996  0.152  0.001
  Li_i2  Li1+  0.596  0.467  0.552  0.001
  Li_i2  Li1+  0.467  0.596  0.552  0.001
  Li_i2  Li1+  0.196  0.067  0.552  0.001
  Li_i2  Li1+  0.596  0.467  0.752  0.001
  Li_i2  Li1+  0.467  0.596  0.752  0.001
  Li_i2  Li1+  0.196  0.867  0.352  0.001
  Li_i2  Li1+  0.596  0.467  0.952  0.001
  Li_i2  Li1+  0.467  0.596  0.952  0.001
  Li_i2  Li1+  0.067  0.996  0.352  0.001
  Li_i2  Li1+  0.596  0.667  0.152  0.001
  Li_i2  Li1+  0.467  0.796  0.152  0.001
  Li_i2  Li1+  0.196  0.267  0.552  0.001
  Li_i2  Li1+  0.596  0.667  0.352  0.001
  Li_i2  Li1+  0.467  0.796  0.352  0.001
  Li_i2  Li1+  0.196  0.867  0.552  0.001
  Li_i2  Li1+  0.596  0.667  0.552  0.001
  Li_i2  Li1+  0.467  0.796  0.552  0.001
  Li_i2  Li1+  0.067  0.996  0.552  0.001
  Li_i2  Li1+  0.596  0.667  0.752  0.001
  Li_i2  Li1+  0.467  0.796  0.752  0.001
  Li_i2  Li1+  0.067  0.396  0.552  0.001
  Li_i2  Li1+  0.596  0.667  0.952  0.001
  Li_i2  Li1+  0.467  0.796  0.952  0.001
  Li_i2  Li1+  0.196  0.867  0.752  0.001
  Li_i2  Li1+  0.596  0.867  0.152  0.001
  Li_i2  Li1+  0.467  0.996  0.152  0.001
  Li_i2  Li1+  0.067  0.996  0.752  0.001
  Li_i2  Li1+  0.596  0.867  0.352  0.001
  Li_i2  Li1+  0.467  0.996  0.352  0.001
  Li_i2  Li1+  0.067  0.196  0.552  0.001
  Li_i2  Li1+  0.596  0.867  0.552  0.001
  Li_i2  Li1+  0.467  0.996  0.552  0.001
  Li_i2  Li1+  0.196  0.867  0.952  0.001
  Li_i2  Li1+  0.596  0.867  0.752  0.001
  Li_i2  Li1+  0.467  0.996  0.752  0.001
  Li_i2  Li1+  0.067  0.996  0.952  0.001
  Li_i2  Li1+  0.596  0.867  0.952  0.001
  Li_i2  Li1+  0.467  0.996  0.952  0.001
  Li_i2  Li1+  0.196  0.267  0.752  0.001
  Li_i2  Li1+  0.796  0.067  0.152  0.001
  Li_i2  Li1+  0.667  0.196  0.152  0.001
  Li_i2  Li1+  0.396  0.067  0.152  0.001
  Li_i2  Li1+  0.796  0.067  0.352  0.001
  Li_i2  Li1+  0.667  0.196  0.352  0.001
  Li_i2  Li1+  0.267  0.196  0.152  0.001
  Li_i2  Li1+  0.796  0.067  0.552  0.001
  Li_i2  Li1+  0.667  0.196  0.552  0.001
  Li_i2  Li1+  0.067  0.396  0.752  0.001
  Li_i2  Li1+  0.796  0.067  0.752  0.001
  Li_i2  Li1+  0.667  0.196  0.752  0.001
  Li_i2  Li1+  0.396  0.067  0.352  0.001
  Li_i2  Li1+  0.796  0.067  0.952  0.001
  Li_i2  Li1+  0.667  0.196  0.952  0.001
  Li_i2  Li1+  0.267  0.196  0.352  0.001
  Li_i2  Li1+  0.796  0.267  0.152  0.001
  Li_i2  Li1+  0.667  0.396  0.152  0.001
  Li_i2  Li1+  0.196  0.067  0.152  0.001
  Li_i2  Li1+  0.796  0.267  0.352  0.001
  Li_i2  Li1+  0.667  0.396  0.352  0.001
  Li_i2  Li1+  0.396  0.067  0.552  0.001
  Li_i2  Li1+  0.796  0.267  0.552  0.001
  Li_i2  Li1+  0.667  0.396  0.552  0.001
  Li_i2  Li1+  0.267  0.196  0.552  0.001
  Li_i2  Li1+  0.796  0.267  0.752  0.001
  Li_i2  Li1+  0.667  0.396  0.752  0.001
  Li_i2  Li1+  0.196  0.267  0.952  0.001
  Li_i2  Li1+  0.796  0.267  0.952  0.001
  Li_i2  Li1+  0.667  0.396  0.952  0.001
  Li_i2  Li1+  0.396  0.067  0.752  0.001
  Li_i2  Li1+  0.796  0.467  0.152  0.001
  Li_i2  Li1+  0.667  0.596  0.152  0.001
  Li_i2  Li1+  0.267  0.196  0.752  0.001
  Li_i2  Li1+  0.796  0.467  0.352  0.001
  Li_i2  Li1+  0.667  0.596  0.352  0.001
  Li_i2  Li1+  0.067  0.396  0.952  0.001
  Li_i2  Li1+  0.796  0.467  0.552  0.001
  Li_i2  Li1+  0.667  0.596  0.552  0.001
  Li_i2  Li1+  0.396  0.067  0.952  0.001
  Li_i2  Li1+  0.796  0.467  0.752  0.001
  Li_i2  Li1+  0.667  0.596  0.752  0.001
  Li_i2  Li1+  0.267  0.196  0.952  0.001
  Li_i2  Li1+  0.796  0.467  0.952  0.001
  Li_i2  Li1+  0.667  0.596  0.952  0.001
  Li_i2  Li1+  0.196  0.067  0.752  0.001
  Li_i2  Li1+  0.796  0.667  0.152  0.001
  Li_i2  Li1+  0.667  0.796  0.152  0.001
  Li_i2  Li1+  0.396  0.267  0.152  0.001
  Li_i2  Li1+  0.796  0.667  0.352  0.001
  Li_i2  Li1+  0.667  0.796  0.352  0.001
  Li_i2  Li1+  0.267  0.396  0.152  0.001
  Li_i2  Li1+  0.796  0.667  0.552  0.001
  Li_i2  Li1+  0.667  0.796  0.552  0.001
  Li_i2  Li1+  0.196  0.467  0.152  0.001
  Li_i2  Li1+  0.796  0.667  0.752  0.001
  Li_i2  Li1+  0.667  0.796  0.752  0.001
  Li_i2  Li1+  0.396  0.267  0.352  0.001
  Li_i2  Li1+  0.796  0.667  0.952  0.001
  Li_i2  Li1+  0.667  0.796  0.952  0.001
  Li_i2  Li1+  0.267  0.396  0.352  0.001
  Li_i2  Li1+  0.796  0.867  0.152  0.001
  Li_i2  Li1+  0.667  0.996  0.152  0.001
  Li_i2  Li1+  0.067  0.596  0.152  0.001
  Li_i2  Li1+  0.796  0.867  0.352  0.001
  Li_i2  Li1+  0.667  0.996  0.352  0.001
  Li_i2  Li1+  0.396  0.267  0.552  0.001
  Li_i2  Li1+  0.796  0.867  0.552  0.001
  Li_i2  Li1+  0.667  0.996  0.552  0.001
  Li_i2  Li1+  0.267  0.396  0.552  0.001
  Li_i2  Li1+  0.796  0.867  0.752  0.001
  Li_i2  Li1+  0.667  0.996  0.752  0.001
  Li_i2  Li1+  0.067  0.196  0.752  0.001
  Li_i2  Li1+  0.796  0.867  0.952  0.001
  Li_i2  Li1+  0.667  0.996  0.952  0.001
  Li_i2  Li1+  0.396  0.267  0.752  0.001
  Li_i2  Li1+  0.996  0.067  0.152  0.001
  Li_i2  Li1+  0.867  0.196  0.152  0.001
  Li_i2  Li1+  0.267  0.396  0.752  0.001
  Li_i2  Li1+  0.996  0.067  0.352  0.001
  Li_i2  Li1+  0.867  0.196  0.352  0.001
  Li_i2  Li1+  0.196  0.467  0.352  0.001
  Li_i2  Li1+  0.996  0.067  0.552  0.001
  Li_i2  Li1+  0.867  0.196  0.552  0.001
  Li_i2  Li1+  0.396  0.267  0.952  0.001
  Li_i2  Li1+  0.996  0.067  0.752  0.001
  Li_i2  Li1+  0.867  0.196  0.752  0.001
  Li_i2  Li1+  0.267  0.396  0.952  0.001
  Li_i2  Li1+  0.996  0.067  0.952  0.001
  Li_i2  Li1+  0.867  0.196  0.952  0.001
  Li_i2  Li1+  0.067  0.596  0.352  0.001
  Li_i2  Li1+  0.996  0.267  0.152  0.001
  Li_i2  Li1+  0.867  0.396  0.152  0.001
  Li_i2  Li1+  0.396  0.467  0.152  0.001
  Li_i2  Li1+  0.996  0.267  0.352  0.001
  Li_i2  Li1+  0.867  0.396  0.352  0.001
  Li_i2  Li1+  0.267  0.596  0.152  0.001
  Li_i2  Li1+  0.996  0.267  0.552  0.001
  Li_i2  Li1+  0.867  0.396  0.552  0.001
  Li_i2  Li1+  0.196  0.067  0.352  0.001
  Li_i2  Li1+  0.996  0.267  0.752  0.001
  Li_i2  Li1+  0.867  0.396  0.752  0.001
  Li_i2  Li1+  0.396  0.467  0.352  0.001
  Li_i2  Li1+  0.996  0.267  0.952  0.001
  Li_i2  Li1+  0.867  0.396  0.952  0.001
  Li_i2  Li1+  0.267  0.596  0.352  0.001
  Li_i2  Li1+  0.996  0.467  0.152  0.001
  Li_i2  Li1+  0.867  0.596  0.152  0.001
  Li_i2  Li1+  0.196  0.467  0.552  0.001
  Li_i2  Li1+  0.996  0.467  0.352  0.001
  Li_i2  Li1+  0.867  0.596  0.352  0.001
  Li_i2  Li1+  0.396  0.467  0.552  0.001
  Li_i2  Li1+  0.996  0.467  0.552  0.001
  Li_i2  Li1+  0.867  0.596  0.552  0.001
  Li_i2  Li1+  0.267  0.596  0.552  0.001
  Li_i2  Li1+  0.996  0.467  0.752  0.001
  Li_i2  Li1+  0.867  0.596  0.752  0.001
  Li_i2  Li1+  0.067  0.596  0.552  0.001
  Li_i2  Li1+  0.996  0.467  0.952  0.001
  Li_i2  Li1+  0.867  0.596  0.952  0.001
  Li_i2  Li1+  0.396  0.467  0.752  0.001
  Li_i2  Li1+  0.996  0.667  0.152  0.001
  Li_i2  Li1+  0.867  0.796  0.152  0.001
  Li_i2  Li1+  0.267  0.596  0.752  0.001
  Li_i2  Li1+  0.996  0.667  0.352  0.001
  Li_i2  Li1+  0.867  0.796  0.352  0.001
  Li_i2  Li1+  0.196  0.067  0.952  0.001
  Li_i2  Li1+  0.996  0.667  0.552  0.001
  Li_i2  Li1+  0.867  0.796  0.552  0.001
  Li_i2  Li1+  0.396  0.467  0.952  0.001
  Li_i2  Li1+  0.996  0.667  0.752  0.001
  Li_i2  Li1+  0.867  0.796  0.752  0.001
  Li_i2  Li1+  0.267  0.596  0.952  0.001
  Li_i2  Li1+  0.996  0.667  0.952  0.001
  Li_i2  Li1+  0.867  0.796  0.952  0.001
  Li_i2  Li1+  0.196  0.467  0.752  0.001
  Li_i2  Li1+  0.996  0.867  0.152  0.001
  Li_i2  Li1+  0.867  0.996  0.152  0.001
  Li_i2  Li1+  0.396  0.667  0.152  0.001
  Li_i2  Li1+  0.996  0.867  0.352  0.001
  Li_i2  Li1+  0.867  0.996  0.352  0.001
  Li_i2  Li1+  0.267  0.796  0.152  0.001
  Li_i2  Li1+  0.996  0.867  0.552  0.001
  Li_i2  Li1+  0.867  0.996  0.552  0.001
  Li_i2  Li1+  0.067  0.596  0.752  0.001
  Li_i2  Li1+  0.996  0.867  0.752  0.001
  Li_i2  Li1+  0.867  0.996  0.752  0.001
  Li_i2  Li1+  0.396  0.667  0.352  0.001
  Li_i2  Li1+  0.996  0.867  0.952  0.001
  Li_i2  Li1+  0.867  0.996  0.952  0.001
  Li_i3  Li1+  0.300  0.500  0.864  0.001
  Li_i3  Li1+  0.500  0.900  0.064  0.001
  Li_i3  Li1+  0.100  0.500  0.464  0.001
  Li_i3  Li1+  0.700  0.700  0.864  0.001
  Li_i3  Li1+  0.100  0.900  0.464  0.001
  Li_i3  Li1+  0.500  0.100  0.664  0.001
  Li_i3  Li1+  0.500  0.900  0.264  0.001
  Li_i3  Li1+  0.700  0.900  0.064  0.001
  Li_i3  Li1+  0.100  0.300  0.864  0.001
  Li_i3  Li1+  0.300  0.700  0.064  0.001
  Li_i3  Li1+  0.300  0.300  0.064  0.001
  Li_i3  Li1+  0.700  0.900  0.264  0.001
  Li_i3  Li1+  0.500  0.900  0.464  0.001
  Li_i3  Li1+  0.500  0.100  0.864  0.001
  Li_i3  Li1+  0.100  0.300  0.064  0.001
  Li_i3  Li1+  0.700  0.900  0.464  0.001
  Li_i3  Li1+  0.100  0.700  0.464  0.001
  Li_i3  Li1+  0.500  0.900  0.664  0.001
  Li_i3  Li1+  0.300  0.700  0.264  0.001
  Li_i3  Li1+  0.700  0.900  0.664  0.001
  Li_i3  Li1+  0.500  0.300  0.064  0.001
  Li_i3  Li1+  0.100  0.900  0.664  0.001
  Li_i3  Li1+  0.500  0.900  0.864  0.001
  Li_i3  Li1+  0.700  0.900  0.864  0.001
  Li_i3  Li1+  0.300  0.300  0.264  0.001
  Li_i3  Li1+  0.100  0.300  0.464  0.001
  Li_i3  Li1+  0.500  0.300  0.264  0.001
  Li_i3  Li1+  0.900  0.100  0.064  0.001
  Li_i3  Li1+  0.700  0.100  0.064  0.001
  Li_i3  Li1+  0.300  0.700  0.464  0.001
  Li_i3  Li1+  0.100  0.500  0.664  0.001
  Li_i3  Li1+  0.900  0.100  0.264  0.001
  Li_i3  Li1+  0.100  0.100  0.464  0.001
  Li_i3  Li1+  0.700  0.100  0.264  0.001
  Li_i3  Li1+  0.500  0.300  0.464  0.001
  Li_i3  Li1+  0.900  0.100  0.464  0.001
  Li_i3  Li1+  0.300  0.300  0.464  0.001
  Li_i3  Li1+  0.300  0.700  0.664  0.001
  Li_i3  Li1+  0.700  0.100  0.464  0.001
  Li_i3  Li1+  0.900  0.100  0.664  0.001
  Li_i3  Li1+  0.100  0.900  0.864  0.001
  Li_i3  Li1+  0.500  0.300  0.664  0.001
  Li_i3  Li1+  0.100  0.700  0.664  0.001
  Li_i3  Li1+  0.900  0.100  0.864  0.001
  Li_i3  Li1+  0.700  0.100  0.664  0.001
  Li_i3  Li1+  0.100  0.500  0.064  0.001
  Li_i3  Li1+  0.300  0.700  0.864  0.001
  Li_i3  Li1+  0.900  0.300  0.064  0.001
  Li_i3  Li1+  0.500  0.300  0.864  0.001
  Li_i3  Li1+  0.700  0.100  0.864  0.001
  Li_i3  Li1+  0.300  0.300  0.664  0.001
  Li_i3  Li1+  0.900  0.300  0.264  0.001
  Li_i3  Li1+  0.100  0.100  0.864  0.001
  Li_i3  Li1+  0.300  0.100  0.064  0.001
  Li_i3  Li1+  0.700  0.300  0.064  0.001
  Li_i3  Li1+  0.900  0.300  0.464  0.001
  Li_i3  Li1+  0.500  0.500  0.064  0.001
  Li_i3  Li1+  0.300  0.900  0.064  0.001
  Li_i3  Li1+  0.100  0.500  0.864  0.001
  Li_i3  Li1+  0.900  0.300  0.664  0.001
  Li_i3  Li1+  0.700  0.300  0.264  0.001
  Li_i3  Li1+  0.300  0.300  0.864  0.001
  Li_i3  Li1+  0.500  0.500  0.264  0.001
  Li_i3  Li1+  0.900  0.300  0.864  0.001
  Li_i3  Li1+  0.100  0.700  0.864  0.001
  Li_i3  Li1+  0.700  0.300  0.464  0.001
  Li_i3  Li1+  0.300  0.900  0.264  0.001
  Li_i3  Li1+  0.900  0.500  0.064  0.001
  Li_i3  Li1+  0.100  0.100  0.664  0.001
  Li_i3  Li1+  0.500  0.500  0.464  0.001
  Li_i3  Li1+  0.700  0.300  0.664  0.001
  Li_i3  Li1+  0.900  0.500  0.264  0.001
  Li_i3  Li1+  0.300  0.100  0.264  0.001
  Li_i3  Li1+  0.300  0.500  0.064  0.001
  Li_i3  Li1+  0.300  0.900  0.464  0.001
  Li_i3  Li1+  0.900  0.500  0.464  0.001
  Li_i3  Li1+  0.700  0.300  0.864  0.001
  Li_i3  Li1+  0.500  0.500  0.664  0.001
  Li_i3  Li1+  0.100  0.300  0.664  0.001
  Li_i3  Li1+  0.900  0.500  0.664  0.001
  Li_i3  Li1+  0.100  0.500  0.264  0.001
  Li_i3  Li1+  0.700  0.500  0.064  0.001
  Li_i3  Li1+  0.100  0.900  0.064  0.001
  Li_i3  Li1+  0.900  0.500  0.864  0.001
  Li_i3  Li1+  0.500  0.500  0.864  0.001
  Li_i3  Li1+  0.300  0.900  0.664  0.001
  Li_i3  Li1+  0.700  0.500  0.264  0.001
  Li_i3  Li1+  0.900  0.700  0.064  0.001
  Li_i3  Li1+  0.300  0.500  0.264  0.001
  Li_i3  Li1+  0.300  0.100  0.464  0.001
  Li_i3  Li1+  0.500  0.700  0.064  0.001
  Li_i3  Li1+  0.900  0.700  0.264  0.001
  Li_i3  Li1+  0.700  0.500  0.464  0.001
  Li_i3  Li1+  0.100  0.700  0.064  0.001
  Li_i3  Li1+  0.300  0.900  0.864  0.001
  Li_i3  Li1+  0.900  0.700  0.464  0.001
  Li_i3  Li1+  0.100  0.300  0.264  0.001
  Li_i3  Li1+  0.700  0.500  0.664  0.001
  Li_i3  Li1+  0.500  0.700  0.264  0.001
  Li_i3  Li1+  0.900  0.700  0.664  0.001
  Li_i3  Li1+  0.300  0.500  0.464  0.001
  Li_i3  Li1+  0.100  0.100  0.264  0.001
  Li_i3  Li1+  0.700  0.500  0.864  0.001
  Li_i3  Li1+  0.900  0.700  0.864  0.001
  Li_i3  Li1+  0.500  0.100  0.064  0.001
  Li_i3  Li1+  0.500  0.700  0.464  0.001
  Li_i3  Li1+  0.300  0.100  0.664  0.001
  Li_i3  Li1+  0.900  0.900  0.064  0.001
  Li_i3  Li1+  0.700  0.700  0.064  0.001
  Li_i3  Li1+  0.100  0.900  0.264  0.001
  Li_i3  Li1+  0.300  0.500  0.664  0.001
  Li_i3  Li1+  0.900  0.900  0.264  0.001
  Li_i3  Li1+  0.500  0.700  0.664  0.001
  Li_i3  Li1+  0.700  0.700  0.264  0.001
  Li_i3  Li1+  0.500  0.100  0.264  0.001
  Li_i3  Li1+  0.900  0.900  0.464  0.001
  Li_i3  Li1+  0.100  0.100  0.064  0.001
  Li_i3  Li1+  0.100  0.700  0.264  0.001
  Li_i3  Li1+  0.700  0.700  0.464  0.001
  Li_i3  Li1+  0.900  0.900  0.664  0.001
  Li_i3  Li1+  0.500  0.700  0.864  0.001
  Li_i3  Li1+  0.300  0.100  0.864  0.001
  Li_i3  Li1+  0.500  0.100  0.464  0.001
  Li_i3  Li1+  0.900  0.900  0.864  0.001
  Li_i3  Li1+  0.700  0.700  0.664  0.001
  Li_i4  Li1+  0.100  0.300  0.791  0.001
  Li_i4  Li1+  0.100  0.500  0.791  0.001
  Li_i4  Li1+  0.500  0.100  0.391  0.001
  Li_i4  Li1+  0.900  0.100  0.191  0.001
  Li_i4  Li1+  0.700  0.300  0.191  0.001
  Li_i4  Li1+  0.500  0.500  0.991  0.001
  Li_i4  Li1+  0.300  0.100  0.391  0.001
  Li_i4  Li1+  0.300  0.700  0.391  0.001
  Li_i4  Li1+  0.900  0.100  0.391  0.001
  Li_i4  Li1+  0.100  0.300  0.191  0.001
  Li_i4  Li1+  0.700  0.300  0.391  0.001
  Li_i4  Li1+  0.300  0.300  0.791  0.001
  Li_i4  Li1+  0.500  0.700  0.191  0.001
  Li_i4  Li1+  0.900  0.100  0.591  0.001
  Li_i4  Li1+  0.500  0.100  0.591  0.001
  Li_i4  Li1+  0.100  0.900  0.391  0.001
  Li_i4  Li1+  0.700  0.300  0.591  0.001
  Li_i4  Li1+  0.100  0.100  0.991  0.001
  Li_i4  Li1+  0.900  0.100  0.791  0.001
  Li_i4  Li1+  0.300  0.700  0.591  0.001
  Li_i4  Li1+  0.500  0.700  0.391  0.001
  Li_i4  Li1+  0.100  0.700  0.591  0.001
  Li_i4  Li1+  0.700  0.300  0.791  0.001
  Li_i4  Li1+  0.900  0.100  0.991  0.001
  Li_i4  Li1+  0.500  0.100  0.791  0.001
  Li_i4  Li1+  0.300  0.100  0.591  0.001
  Li_i4  Li1+  0.300  0.300  0.991  0.001
  Li_i4  Li1+  0.500  0.700  0.591  0.001
  Li_i4  Li1+  0.900  0.300  0.191  0.001
  Li_i4  Li1+  0.700  0.300  0.991  0.001
  Li_i4  Li1+  0.100  0.100  0.391  0.001
  Li_i4  Li1+  0.300  0.700  0.791  0.001
  Li_i4  Li1+  0.500  0.100  0.991  0.001
  Li_i4  Li1+  0.900  0.300  0.391  0.001
  Li_i4  Li1+  0.100  0.500  0.391  0.001
  Li_i4  Li1+  0.700  0.500  0.191  0.001
  Li_i4  Li1+  0.500  0.700  0.791  0.001
  Li_i4  Li1+  0.100  0.900  0.591  0.001
  Li_i4  Li1+  0.900  0.300  0.591  0.001
  Li_i4  Li1+  0.100  0.500  0.991  0.001
  Li_i4  Li1+  0.300  0.500  0.191  0.001
  Li_i4  Li1+  0.700  0.500  0.391  0.001
  Li_i4  Li1+  0.500  0.300  0.191  0.001
  Li_i4  Li1+  0.900  0.300  0.791  0.001
  Li_i4  Li1+  0.500  0.700  0.991  0.001
  Li_i4  Li1+  0.300  0.700  0.991  0.001
  Li_i4  Li1+  0.300  0.100  0.791  0.001
  Li_i4  Li1+  0.700  0.500  0.591  0.001
  Li_i4  Li1+  0.900  0.300  0.991  0.001
  Li_i4  Li1+  0.100  0.300  0.591  0.001
  Li_i4  Li1+  0.100  0.700  0.791  0.001
  Li_i4  Li1+  0.500  0.900  0.191  0.001
  Li_i4  Li1+  0.500  0.300  0.391  0.001
  Li_i4  Li1+  0.900  0.500  0.191  0.001
  Li_i4  Li1+  0.700  0.500  0.791  0.001
  Li_i4  Li1+  0.100  0.300  0.991  0.001
  Li_i4  Li1+  0.300  0.900  0.191  0.001
  Li_i4  Li1+  0.300  0.500  0.391  0.001
  Li_i4  Li1+  0.900  0.500  0.391  0.001
  Li_i4  Li1+  0.500  0.900  0.391  0.001
  Li_i4  Li1+  0.700  0.500  0.991  0.001
  Li_i4  Li1+  0.100  0.900  0.791  0.001
  Li_i4  Li1+  0.500  0.300  0.591  0.001
  Li_i4  Li1+  0.900  0.500  0.591  0.001
  Li_i4  Li1+  0.300  0.100  0.991  0.001
  Li_i4  Li1+  0.100  0.100  0.591  0.001
  Li_i4  Li1+  0.700  0.700  0.191  0.001
  Li_i4  Li1+  0.500  0.900  0.591  0.001
  Li_i4  Li1+  0.900  0.500  0.791  0.001
  Li_i4  Li1+  0.300  0.900  0.391  0.001
  Li_i4  Li1+  0.100  0.100  0.191  0.001
  Li_i4  Li1+  0.500  0.300  0.791  0.001
  Li_i4  Li1+  0.700  0.700  0.391  0.001
  Li_i4  Li1+  0.900  0.500  0.991  0.001
  Li_i4  Li1+  0.300  0.500  0.591  0.001
  Li_i4  Li1+  0.500  0.900  0.791  0.001
  Li_i4  Li1+  0.100  0.700  0.191  0.001
  Li_i4  Li1+  0.100  0.700  0.991  0.001
  Li_i4  Li1+  0.900  0.700  0.191  0.001
  Li_i4  Li1+  0.700  0.700  0.591  0.001
  Li_i4  Li1+  0.300  0.900  0.591  0.001
  Li_i4  Li1+  0.500  0.300  0.991  0.001
  Li_i4  Li1+  0.500  0.900  0.991  0.001
  Li_i4  Li1+  0.900  0.700  0.391  0.001
  Li_i4  Li1+  0.300  0.300  0.191  0.001
  Li_i4  Li1+  0.700  0.700  0.791  0.001
  Li_i4  Li1+  0.100  0.900  0.991  0.001
  Li_i4  Li1+  0.300  0.500  0.791  0.001
  Li_i4  Li1+  0.900  0.700  0.591  0.001
  Li_i4  Li1+  0.100  0.500  0.591  0.001
  Li_i4  Li1+  0.700  0.100  0.191  0.001
  Li_i4  Li1+  0.700  0.700  0.991  0.001
  Li_i4  Li1+  0.500  0.500  0.191  0.001
  Li_i4  Li1+  0.900  0.700  0.791  0.001
  Li_i4  Li1+  0.300  0.900  0.791  0.001
  Li_i4  Li1+  0.100  0.300  0.391  0.001
  Li_i4  Li1+  0.100  0.100  0.791  0.001
  Li_i4  Li1+  0.700  0.900  0.191  0.001
  Li_i4  Li1+  0.900  0.700  0.991  0.001
  Li_i4  Li1+  0.700  0.100  0.391  0.001
  Li_i4  Li1+  0.300  0.300  0.391  0.001
  Li_i4  Li1+  0.500  0.500  0.391  0.001
  Li_i4  Li1+  0.300  0.500  0.991  0.001
  Li_i4  Li1+  0.900  0.900  0.191  0.001
  Li_i4  Li1+  0.700  0.900  0.391  0.001
  Li_i4  Li1+  0.300  0.900  0.991  0.001
  Li_i4  Li1+  0.700  0.100  0.591  0.001
  Li_i4  Li1+  0.100  0.500  0.191  0.001
  Li_i4  Li1+  0.900  0.900  0.391  0.001
  Li_i4  Li1+  0.300  0.100  0.191  0.001
  Li_i4  Li1+  0.700  0.900  0.591  0.001
  Li_i4  Li1+  0.500  0.500  0.591  0.001
  Li_i4  Li1+  0.100  0.900  0.191  0.001
  Li_i4  Li1+  0.900  0.900  0.591  0.001
  Li_i4  Li1+  0.700  0.100  0.791  0.001
  Li_i4  Li1+  0.100  0.700  0.391  0.001
  Li_i4  Li1+  0.700  0.900  0.791  0.001
  Li_i4  Li1+  0.500  0.100  0.191  0.001
  Li_i4  Li1+  0.900  0.900  0.791  0.001
  Li_i4  Li1+  0.300  0.700  0.191  0.001
  Li_i4  Li1+  0.500  0.500  0.791  0.001
  Li_i4  Li1+  0.700  0.100  0.991  0.001
  Li_i4  Li1+  0.700  0.900  0.991  0.001
  Li_i4  Li1+  0.900  0.900  0.991  0.001
  Li_i4  Li1+  0.300  0.300  0.591  0.001
  Li_i5  Li1+  0.100  0.300  0.136  0.001
  Li_i5  Li1+  0.100  0.100  0.336  0.001
  Li_i5  Li1+  0.500  0.900  0.536  0.001
  Li_i5  Li1+  0.900  0.100  0.936  0.001
  Li_i5  Li1+  0.500  0.500  0.136  0.001
  Li_i5  Li1+  0.500  0.100  0.136  0.001
  Li_i5  Li1+  0.700  0.500  0.536  0.001
  Li_i5  Li1+  0.100  0.900  0.936  0.001
  Li_i5  Li1+  0.300  0.100  0.936  0.001
  Li_i5  Li1+  0.900  0.300  0.136  0.001
  Li_i5  Li1+  0.300  0.700  0.536  0.001
  Li_i5  Li1+  0.500  0.900  0.736  0.001
  Li_i5  Li1+  0.300  0.500  0.136  0.001
  Li_i5  Li1+  0.700  0.500  0.736  0.001
  Li_i5  Li1+  0.500  0.500  0.336  0.001
  Li_i5  Li1+  0.900  0.300  0.336  0.001
  Li_i5  Li1+  0.100  0.900  0.136  0.001
  Li_i5  Li1+  0.500  0.100  0.336  0.001
  Li_i5  Li1+  0.100  0.100  0.136  0.001
  Li_i5  Li1+  0.500  0.900  0.936  0.001
  Li_i5  Li1+  0.700  0.500  0.936  0.001
  Li_i5  Li1+  0.900  0.300  0.536  0.001
  Li_i5  Li1+  0.100  0.500  0.936  0.001
  Li_i5  Li1+  0.100  0.700  0.536  0.001
  Li_i5  Li1+  0.500  0.500  0.536  0.001
  Li_i5  Li1+  0.300  0.700  0.736  0.001
  Li_i5  Li1+  0.100  0.300  0.736  0.001
  Li_i5  Li1+  0.900  0.300  0.736  0.001
  Li_i5  Li1+  0.700  0.700  0.136  0.001
  Li_i5  Li1+  0.700  0.100  0.136  0.001
  Li_i5  Li1+  0.500  0.100  0.536  0.001
  Li_i5  Li1+  0.300  0.500  0.336  0.001
  Li_i5  Li1+  0.300  0.300  0.136  0.001
  Li_i5  Li1+  0.900  0.300  0.936  0.001
  Li_i5  Li1+  0.500  0.500  0.736  0.001
  Li_i5  Li1+  0.700  0.700  0.336  0.001
  Li_i5  Li1+  0.300  0.100  0.136  0.001
  Li_i5  Li1+  0.700  0.100  0.336  0.001
  Li_i5  Li1+  0.100  0.100  0.736  0.001
  Li_i5  Li1+  0.900  0.500  0.136  0.001
  Li_i5  Li1+  0.300  0.700  0.936  0.001
  Li_i5  Li1+  0.500  0.100  0.736  0.001
  Li_i5  Li1+  0.700  0.700  0.536  0.001
  Li_i5  Li1+  0.100  0.900  0.336  0.001
  Li_i5  Li1+  0.500  0.500  0.936  0.001
  Li_i5  Li1+  0.900  0.500  0.336  0.001
  Li_i5  Li1+  0.700  0.100  0.536  0.001
  Li_i5  Li1+  0.100  0.500  0.536  0.001
  Li_i5  Li1+  0.300  0.500  0.536  0.001
  Li_i5  Li1+  0.700  0.700  0.736  0.001
  Li_i5  Li1+  0.100  0.500  0.136  0.001
  Li_i5  Li1+  0.900  0.500  0.536  0.001
  Li_i5  Li1+  0.300  0.300  0.336  0.001
  Li_i5  Li1+  0.500  0.100  0.936  0.001
  Li_i5  Li1+  0.700  0.100  0.736  0.001
  Li_i5  Li1+  0.500  0.700  0.136  0.001
  Li_i5  Li1+  0.700  0.700  0.936  0.001
  Li_i5  Li1+  0.900  0.500  0.736  0.001
  Li_i5  Li1+  0.300  0.900  0.136  0.001
  Li_i5  Li1+  0.100  0.100  0.536  0.001
  Li_i5  Li1+  0.300  0.100  0.336  0.001
  Li_i5  Li1+  0.100  0.700  0.736  0.001
  Li_i5  Li1+  0.700  0.100  0.936  0.001
  Li_i5  Li1+  0.900  0.500  0.936  0.001
  Li_i5  Li1+  0.700  0.900  0.136  0.001
  Li_i5  Li1+  0.300  0.500  0.736  0.001
  Li_i5  Li1+  0.500  0.700  0.336  0.001
  Li_i5  Li1+  0.500  0.300  0.136  0.001
  Li_i5  Li1+  0.100  0.700  0.136  0.001
  Li_i5  Li1+  0.900  0.700  0.136  0.001
  Li_i5  Li1+  0.300  0.900  0.336  0.001
  Li_i5  Li1+  0.700  0.900  0.336  0.001
  Li_i5  Li1+  0.700  0.300  0.136  0.001
  Li_i5  Li1+  0.100  0.900  0.536  0.001
  Li_i5  Li1+  0.300  0.300  0.536  0.001
  Li_i5  Li1+  0.900  0.700  0.336  0.001
  Li_i5  Li1+  0.500  0.700  0.536  0.001
  Li_i5  Li1+  0.100  0.300  0.536  0.001
  Li_i5  Li1+  0.700  0.900  0.536  0.001
  Li_i5  Li1+  0.500  0.300  0.336  0.001
  Li_i5  Li1+  0.700  0.300  0.336  0.001
  Li_i5  Li1+  0.900  0.700  0.536  0.001
  Li_i5  Li1+  0.100  0.100  0.936  0.001
  Li_i5  Li1+  0.300  0.500  0.936  0.001
  Li_i5  Li1+  0.300  0.900  0.536  0.001
  Li_i5  Li1+  0.700  0.900  0.736  0.001
  Li_i5  Li1+  0.500  0.700  0.736  0.001
  Li_i5  Li1+  0.900  0.700  0.736  0.001
  Li_i5  Li1+  0.300  0.100  0.536  0.001
  Li_i5  Li1+  0.700  0.300  0.536  0.001
  Li_i5  Li1+  0.100  0.300  0.336  0.001
  Li_i5  Li1+  0.500  0.300  0.536  0.001
  Li_i5  Li1+  0.700  0.900  0.936  0.001
  Li_i5  Li1+  0.900  0.700  0.936  0.001
  Li_i5  Li1+  0.100  0.500  0.736  0.001
  Li_i5  Li1+  0.300  0.300  0.736  0.001
  Li_i5  Li1+  0.500  0.700  0.936  0.001
  Li_i5  Li1+  0.700  0.300  0.736  0.001
  Li_i5  Li1+  0.100  0.700  0.936  0.001
  Li_i5  Li1+  0.900  0.900  0.136  0.001
  Li_i5  Li1+  0.900  0.100  0.136  0.001
  Li_i5  Li1+  0.300  0.900  0.736  0.001
  Li_i5  Li1+  0.300  0.700  0.136  0.001
  Li_i5  Li1+  0.500  0.300  0.736  0.001
  Li_i5  Li1+  0.100  0.900  0.736  0.001
  Li_i5  Li1+  0.900  0.900  0.336  0.001
  Li_i5  Li1+  0.700  0.300  0.936  0.001
  Li_i5  Li1+  0.900  0.100  0.336  0.001
  Li_i5  Li1+  0.500  0.900  0.136  0.001
  Li_i5  Li1+  0.100  0.300  0.936  0.001
  Li_i5  Li1+  0.300  0.100  0.736  0.001
  Li_i5  Li1+  0.900  0.900  0.536  0.001
  Li_i5  Li1+  0.100  0.700  0.336  0.001
  Li_i5  Li1+  0.300  0.900  0.936  0.001
  Li_i5  Li1+  0.900  0.100  0.536  0.001
  Li_i5  Li1+  0.700  0.500  0.136  0.001
  Li_i5  Li1+  0.500  0.300  0.936  0.001
  Li_i5  Li1+  0.900  0.900  0.736  0.001
  Li_i5  Li1+  0.500  0.900  0.336  0.001
  Li_i5  Li1+  0.300  0.300  0.936  0.001
  Li_i5  Li1+  0.300  0.700  0.336  0.001
  Li_i5  Li1+  0.900  0.100  0.736  0.001
  Li_i5  Li1+  0.100  0.500  0.336  0.001
  Li_i5  Li1+  0.900  0.900  0.936  0.001
  Li_i5  Li1+  0.700  0.500  0.336  0.001
  Li_i6  Li1+  0.529  0.004  0.431  0.001
  Li_i6  Li1+  0.729  0.604  0.631  0.001
  Li_i6  Li1+  0.329  0.004  0.831  0.001
  Li_i6  Li1+  0.404  0.929  0.031  0.001
  Li_i6  Li1+  0.329  0.404  0.831  0.001
  Li_i6  Li1+  0.529  0.804  0.031  0.001
  Li_i6  Li1+  0.004  0.329  0.831  0.001
  Li_i6  Li1+  0.604  0.729  0.831  0.001
  Li_i6  Li1+  0.004  0.929  0.431  0.001
  Li_i6  Li1+  0.729  0.604  0.831  0.001
  Li_i6  Li1+  0.129  0.404  0.431  0.001
  Li_i6  Li1+  0.404  0.129  0.631  0.001
  Li_i6  Li1+  0.129  0.804  0.431  0.001
  Li_i6  Li1+  0.404  0.929  0.231  0.001
  Li_i6  Li1+  0.529  0.004  0.631  0.001
  Li_i6  Li1+  0.604  0.929  0.031  0.001
  Li_i6  Li1+  0.529  0.804  0.231  0.001
  Li_i6  Li1+  0.729  0.804  0.031  0.001
  Li_i6  Li1+  0.004  0.329  0.031  0.001
  Li_i6  Li1+  0.204  0.729  0.031  0.001
  Li_i6  Li1+  0.204  0.329  0.031  0.001
  Li_i6  Li1+  0.329  0.604  0.031  0.001
  Li_i6  Li1+  0.129  0.204  0.831  0.001
  Li_i6  Li1+  0.604  0.929  0.231  0.001
  Li_i6  Li1+  0.404  0.929  0.431  0.001
  Li_i6  Li1+  0.729  0.804  0.231  0.001
  Li_i6  Li1+  0.404  0.129  0.831  0.001
  Li_i6  Li1+  0.529  0.804  0.431  0.001
  Li_i6  Li1+  0.329  0.204  0.031  0.001
  Li_i6  Li1+  0.529  0.004  0.831  0.001
  Li_i6  Li1+  0.004  0.129  0.431  0.001
  Li_i6  Li1+  0.604  0.929  0.431  0.001
  Li_i6  Li1+  0.004  0.729  0.431  0.001
  Li_i6  Li1+  0.729  0.804  0.431  0.001
  Li_i6  Li1+  0.004  0.329  0.431  0.001
  Li_i6  Li1+  0.404  0.929  0.631  0.001
  Li_i6  Li1+  0.204  0.729  0.231  0.001
  Li_i6  Li1+  0.529  0.804  0.631  0.001
  Li_i6  Li1+  0.004  0.929  0.631  0.001
  Li_i6  Li1+  0.604  0.929  0.631  0.001
  Li_i6  Li1+  0.404  0.329  0.031  0.001
  Li_i6  Li1+  0.729  0.804  0.631  0.001
  Li_i6  Li1+  0.329  0.604  0.231  0.001
  Li_i6  Li1+  0.529  0.204  0.031  0.001
  Li_i6  Li1+  0.129  0.604  0.431  0.001
  Li_i6  Li1+  0.404  0.929  0.831  0.001
  Li_i6  Li1+  0.204  0.329  0.231  0.001
  Li_i6  Li1+  0.604  0.929  0.831  0.001
  Li_i6  Li1+  0.529  0.804  0.831  0.001
  Li_i6  Li1+  0.729  0.804  0.831  0.001
  Li_i6  Li1+  0.129  0.804  0.631  0.001
  Li_i6  Li1+  0.329  0.204  0.231  0.001
  Li_i6  Li1+  0.129  0.204  0.031  0.001
  Li_i6  Li1+  0.404  0.329  0.231  0.001
  Li_i6  Li1+  0.204  0.729  0.431  0.001
  Li_i6  Li1+  0.804  0.129  0.031  0.001
  Li_i6  Li1+  0.604  0.129  0.031  0.001
  Li_i6  Li1+  0.929  0.004  0.031  0.001
  Li_i6  Li1+  0.529  0.204  0.231  0.001
  Li_i6  Li1+  0.729  0.004  0.031  0.001
  Li_i6  Li1+  0.004  0.529  0.631  0.001
  Li_i6  Li1+  0.329  0.604  0.431  0.001
  Li_i6  Li1+  0.129  0.204  0.431  0.001
  Li_i6  Li1+  0.804  0.129  0.231  0.001
  Li_i6  Li1+  0.129  0.404  0.631  0.001
  Li_i6  Li1+  0.929  0.004  0.231  0.001
  Li_i6  Li1+  0.004  0.129  0.231  0.001
  Li_i6  Li1+  0.604  0.129  0.231  0.001
  Li_i6  Li1+  0.404  0.329  0.431  0.001
  Li_i6  Li1+  0.729  0.004  0.231  0.001
  Li_i6  Li1+  0.204  0.329  0.431  0.001
  Li_i6  Li1+  0.804  0.129  0.431  0.001
  Li_i6  Li1+  0.529  0.204  0.431  0.001
  Li_i6  Li1+  0.929  0.004  0.431  0.001
  Li_i6  Li1+  0.004  0.929  0.831  0.001
  Li_i6  Li1+  0.204  0.729  0.631  0.001
  Li_i6  Li1+  0.329  0.204  0.431  0.001
  Li_i6  Li1+  0.604  0.129  0.431  0.001
  Li_i6  Li1+  0.329  0.604  0.631  0.001
  Li_i6  Li1+  0.804  0.129  0.631  0.001
  Li_i6  Li1+  0.729  0.004  0.431  0.001
  Li_i6  Li1+  0.929  0.004  0.631  0.001
  Li_i6  Li1+  0.004  0.729  0.631  0.001
  Li_i6  Li1+  0.404  0.329  0.631  0.001
  Li_i6  Li1+  0.129  0.804  0.831  0.001
  Li_i6  Li1+  0.529  0.204  0.631  0.001
  Li_i6  Li1+  0.004  0.529  0.031  0.001
  Li_i6  Li1+  0.804  0.129  0.831  0.001
  Li_i6  Li1+  0.604  0.129  0.631  0.001
  Li_i6  Li1+  0.929  0.004  0.831  0.001
  Li_i6  Li1+  0.129  0.604  0.631  0.001
  Li_i6  Li1+  0.729  0.004  0.631  0.001
  Li_i6  Li1+  0.004  0.129  0.831  0.001
  Li_i6  Li1+  0.204  0.729  0.831  0.001
  Li_i6  Li1+  0.204  0.329  0.631  0.001
  Li_i6  Li1+  0.804  0.329  0.031  0.001
  Li_i6  Li1+  0.404  0.329  0.831  0.001
  Li_i6  Li1+  0.929  0.204  0.031  0.001
  Li_i6  Li1+  0.329  0.604  0.831  0.001
  Li_i6  Li1+  0.604  0.129  0.831  0.001
  Li_i6  Li1+  0.529  0.204  0.831  0.001
  Li_i6  Li1+  0.729  0.004  0.831  0.001
  Li_i6  Li1+  0.129  0.404  0.031  0.001
  Li_i6  Li1+  0.804  0.329  0.231  0.001
  Li_i6  Li1+  0.329  0.204  0.631  0.001
  Li_i6  Li1+  0.929  0.204  0.231  0.001
  Li_i6  Li1+  0.004  0.129  0.631  0.001
  Li_i6  Li1+  0.204  0.129  0.031  0.001
  Li_i6  Li1+  0.004  0.529  0.831  0.001
  Li_i6  Li1+  0.604  0.329  0.031  0.001
  Li_i6  Li1+  0.404  0.529  0.031  0.001
  Li_i6  Li1+  0.804  0.329  0.431  0.001
  Li_i6  Li1+  0.729  0.204  0.031  0.001
  Li_i6  Li1+  0.929  0.204  0.431  0.001
  Li_i6  Li1+  0.204  0.929  0.031  0.001
  Li_i6  Li1+  0.529  0.404  0.031  0.001
  Li_i6  Li1+  0.329  0.004  0.031  0.001
  Li_i6  Li1+  0.329  0.804  0.031  0.001
  Li_i6  Li1+  0.129  0.004  0.831  0.001
  Li_i6  Li1+  0.804  0.329  0.631  0.001
  Li_i6  Li1+  0.604  0.329  0.231  0.001
  Li_i6  Li1+  0.929  0.204  0.631  0.001
  Li_i6  Li1+  0.204  0.329  0.831  0.001
  Li_i6  Li1+  0.729  0.204  0.231  0.001
  Li_i6  Li1+  0.004  0.729  0.831  0.001
  Li_i6  Li1+  0.404  0.529  0.231  0.001
  Li_i6  Li1+  0.329  0.204  0.831  0.001
  Li_i6  Li1+  0.804  0.329  0.831  0.001
  Li_i6  Li1+  0.529  0.404  0.231  0.001
  Li_i6  Li1+  0.929  0.204  0.831  0.001
  Li_i6  Li1+  0.129  0.404  0.831  0.001
  Li_i6  Li1+  0.604  0.329  0.431  0.001
  Li_i6  Li1+  0.204  0.929  0.231  0.001
  Li_i6  Li1+  0.729  0.204  0.431  0.001
  Li_i6  Li1+  0.129  0.604  0.831  0.001
  Li_i6  Li1+  0.804  0.529  0.031  0.001
  Li_i6  Li1+  0.329  0.804  0.231  0.001
  Li_i6  Li1+  0.929  0.404  0.031  0.001
  Li_i6  Li1+  0.129  0.004  0.431  0.001
  Li_i6  Li1+  0.404  0.529  0.431  0.001
  Li_i6  Li1+  0.204  0.129  0.231  0.001
  Li_i6  Li1+  0.604  0.329  0.631  0.001
  Li_i6  Li1+  0.529  0.404  0.431  0.001
  Li_i6  Li1+  0.804  0.529  0.231  0.001
  Li_i6  Li1+  0.729  0.204  0.631  0.001
  Li_i6  Li1+  0.929  0.404  0.231  0.001
  Li_i6  Li1+  0.004  0.329  0.631  0.001
  Li_i6  Li1+  0.204  0.529  0.031  0.001
  Li_i6  Li1+  0.329  0.004  0.231  0.001
  Li_i6  Li1+  0.204  0.929  0.431  0.001
  Li_i6  Li1+  0.329  0.404  0.031  0.001
  Li_i6  Li1+  0.804  0.529  0.431  0.001
  Li_i6  Li1+  0.604  0.329  0.831  0.001
  Li_i6  Li1+  0.929  0.404  0.431  0.001
  Li_i6  Li1+  0.404  0.529  0.631  0.001
  Li_i6  Li1+  0.729  0.204  0.831  0.001
  Li_i6  Li1+  0.329  0.804  0.431  0.001
  Li_i6  Li1+  0.529  0.404  0.631  0.001
  Li_i6  Li1+  0.004  0.329  0.231  0.001
  Li_i6  Li1+  0.804  0.529  0.631  0.001
  Li_i6  Li1+  0.004  0.529  0.231  0.001
  Li_i6  Li1+  0.929  0.404  0.631  0.001
  Li_i6  Li1+  0.129  0.204  0.631  0.001
  Li_i6  Li1+  0.604  0.529  0.031  0.001
  Li_i6  Li1+  0.004  0.929  0.031  0.001
  Li_i6  Li1+  0.729  0.404  0.031  0.001
  Li_i6  Li1+  0.004  0.729  0.031  0.001
  Li_i6  Li1+  0.804  0.529  0.831  0.001
  Li_i6  Li1+  0.404  0.529  0.831  0.001
  Li_i6  Li1+  0.929  0.404  0.831  0.001
  Li_i6  Li1+  0.204  0.929  0.631  0.001
  Li_i6  Li1+  0.529  0.404  0.831  0.001
  Li_i6  Li1+  0.204  0.529  0.231  0.001
  Li_i6  Li1+  0.604  0.529  0.231  0.001
  Li_i6  Li1+  0.329  0.804  0.631  0.001
  Li_i6  Li1+  0.804  0.729  0.031  0.001
  Li_i6  Li1+  0.729  0.404  0.231  0.001
  Li_i6  Li1+  0.929  0.604  0.031  0.001
  Li_i6  Li1+  0.204  0.129  0.431  0.001
  Li_i6  Li1+  0.329  0.404  0.231  0.001
  Li_i6  Li1+  0.129  0.804  0.031  0.001
  Li_i6  Li1+  0.404  0.729  0.031  0.001
  Li_i6  Li1+  0.329  0.004  0.431  0.001
  Li_i6  Li1+  0.804  0.729  0.231  0.001
  Li_i6  Li1+  0.604  0.529  0.431  0.001
  Li_i6  Li1+  0.929  0.604  0.231  0.001
  Li_i6  Li1+  0.529  0.604  0.031  0.001
  Li_i6  Li1+  0.729  0.404  0.431  0.001
  Li_i6  Li1+  0.129  0.404  0.231  0.001
  Li_i6  Li1+  0.204  0.929  0.831  0.001
  Li_i6  Li1+  0.129  0.604  0.031  0.001
  Li_i6  Li1+  0.804  0.729  0.431  0.001
  Li_i6  Li1+  0.329  0.804  0.831  0.001
  Li_i6  Li1+  0.929  0.604  0.431  0.001
  Li_i6  Li1+  0.129  0.004  0.631  0.001
  Li_i6  Li1+  0.604  0.529  0.631  0.001
  Li_i6  Li1+  0.404  0.729  0.231  0.001
  Li_i6  Li1+  0.729  0.404  0.631  0.001
  Li_i6  Li1+  0.204  0.529  0.431  0.001
  Li_i6  Li1+  0.804  0.729  0.631  0.001
  Li_i6  Li1+  0.529  0.604  0.231  0.001
  Li_i6  Li1+  0.929  0.604  0.631  0.001
  Li_i6  Li1+  0.129  0.204  0.231  0.001
  Li_i6  Li1+  0.329  0.404  0.431  0.001
  Li_i6  Li1+  0.129  0.004  0.031  0.001
  Li_i6  Li1+  0.604  0.529  0.831  0.001
  Li_i6  Li1+  0.404  0.129  0.031  0.001
  Li_i6  Li1+  0.804  0.729  0.831  0.001
  Li_i6  Li1+  0.729  0.404  0.831  0.001
  Li_i6  Li1+  0.929  0.604  0.831  0.001
  Li_i6  Li1+  0.204  0.129  0.631  0.001
  Li_i6  Li1+  0.404  0.729  0.431  0.001
  Li_i6  Li1+  0.529  0.004  0.031  0.001
  Li_i6  Li1+  0.529  0.604  0.431  0.001
  Li_i6  Li1+  0.004  0.929  0.231  0.001
  Li_i6  Li1+  0.804  0.929  0.031  0.001
  Li_i6  Li1+  0.604  0.729  0.031  0.001
  Li_i6  Li1+  0.929  0.804  0.031  0.001
  Li_i6  Li1+  0.329  0.004  0.631  0.001
  Li_i6  Li1+  0.729  0.604  0.031  0.001
  Li_i6  Li1+  0.129  0.004  0.231  0.001
  Li_i6  Li1+  0.204  0.529  0.631  0.001
  Li_i6  Li1+  0.129  0.804  0.231  0.001
  Li_i6  Li1+  0.804  0.929  0.231  0.001
  Li_i6  Li1+  0.404  0.729  0.631  0.001
  Li_i6  Li1+  0.929  0.804  0.231  0.001
  Li_i6  Li1+  0.404  0.129  0.231  0.001
  Li_i6  Li1+  0.604  0.729  0.231  0.001
  Li_i6  Li1+  0.529  0.604  0.631  0.001
  Li_i6  Li1+  0.729  0.604  0.231  0.001
  Li_i6  Li1+  0.329  0.404  0.631  0.001
  Li_i6  Li1+  0.804  0.929  0.431  0.001
  Li_i6  Li1+  0.529  0.004  0.231  0.001
  Li_i6  Li1+  0.929  0.804  0.431  0.001
  Li_i6  Li1+  0.004  0.129  0.031  0.001
  Li_i6  Li1+  0.004  0.729  0.231  0.001
  Li_i6  Li1+  0.004  0.529  0.431  0.001
  Li_i6  Li1+  0.604  0.729  0.431  0.001
  Li_i6  Li1+  0.404  0.729  0.831  0.001
  Li_i6  Li1+  0.804  0.929  0.631  0.001
  Li_i6  Li1+  0.729  0.604  0.431  0.001
  Li_i6  Li1+  0.929  0.804  0.631  0.001
  Li_i6  Li1+  0.204  0.129  0.831  0.001
  Li_i6  Li1+  0.529  0.604  0.831  0.001
  Li_i6  Li1+  0.129  0.604  0.231  0.001
  Li_i6  Li1+  0.404  0.129  0.431  0.001
  Li_i6  Li1+  0.204  0.529  0.831  0.001
  Li_i6  Li1+  0.804  0.929  0.831  0.001
  Li_i6  Li1+  0.604  0.729  0.631  0.001
  Li_i6  Li1+  0.929  0.804  0.831  0.001
  Li_i7  Li1+  0.133  0.604  0.339  0.001
  Li_i7  Li1+  0.333  0.204  0.539  0.001
  Li_i7  Li1+  0.004  0.533  0.739  0.001
  Li_i7  Li1+  0.004  0.133  0.939  0.001
  Li_i7  Li1+  0.404  0.133  0.339  0.001
  Li_i7  Li1+  0.204  0.133  0.339  0.001
  Li_i7  Li1+  0.804  0.133  0.139  0.001
  Li_i7  Li1+  0.604  0.333  0.139  0.001
  Li_i7  Li1+  0.404  0.533  0.939  0.001
  Li_i7  Li1+  0.933  0.004  0.139  0.001
  Li_i7  Li1+  0.133  0.204  0.739  0.001
  Li_i7  Li1+  0.733  0.204  0.139  0.001
  Li_i7  Li1+  0.533  0.004  0.339  0.001
  Li_i7  Li1+  0.533  0.404  0.939  0.001
  Li_i7  Li1+  0.204  0.733  0.339  0.001
  Li_i7  Li1+  0.133  0.404  0.739  0.001
  Li_i7  Li1+  0.804  0.133  0.339  0.001
  Li_i7  Li1+  0.333  0.004  0.339  0.001
  Li_i7  Li1+  0.333  0.604  0.339  0.001
  Li_i7  Li1+  0.933  0.004  0.339  0.001
  Li_i7  Li1+  0.604  0.333  0.339  0.001
  Li_i7  Li1+  0.204  0.333  0.739  0.001
  Li_i7  Li1+  0.004  0.933  0.339  0.001
  Li_i7  Li1+  0.733  0.204  0.339  0.001
  Li_i7  Li1+  0.404  0.733  0.139  0.001
  Li_i7  Li1+  0.404  0.133  0.539  0.001
  Li_i7  Li1+  0.804  0.133  0.539  0.001
  Li_i7  Li1+  0.004  0.133  0.139  0.001
  Li_i7  Li1+  0.533  0.604  0.139  0.001
  Li_i7  Li1+  0.933  0.004  0.539  0.001
  Li_i7  Li1+  0.333  0.204  0.739  0.001
  Li_i7  Li1+  0.533  0.004  0.539  0.001
  Li_i7  Li1+  0.604  0.333  0.539  0.001
  Li_i7  Li1+  0.133  0.204  0.139  0.001
  Li_i7  Li1+  0.133  0.804  0.339  0.001
  Li_i7  Li1+  0.733  0.204  0.539  0.001
  Li_i7  Li1+  0.804  0.133  0.739  0.001
  Li_i7  Li1+  0.204  0.733  0.539  0.001
  Li_i7  Li1+  0.004  0.733  0.539  0.001
  Li_i7  Li1+  0.933  0.004  0.739  0.001
  Li_i7  Li1+  0.404  0.733  0.339  0.001
  Li_i7  Li1+  0.133  0.004  0.739  0.001
  Li_i7  Li1+  0.333  0.604  0.539  0.001
  Li_i7  Li1+  0.533  0.604  0.339  0.001
  Li_i7  Li1+  0.604  0.333  0.739  0.001
  Li_i7  Li1+  0.404  0.133  0.739  0.001
  Li_i7  Li1+  0.804  0.133  0.939  0.001
  Li_i7  Li1+  0.204  0.133  0.539  0.001
  Li_i7  Li1+  0.733  0.204  0.739  0.001
  Li_i7  Li1+  0.933  0.004  0.939  0.001
  Li_i7  Li1+  0.133  0.004  0.939  0.001
  Li_i7  Li1+  0.533  0.004  0.739  0.001
  Li_i7  Li1+  0.204  0.333  0.939  0.001
  Li_i7  Li1+  0.133  0.604  0.539  0.001
  Li_i7  Li1+  0.404  0.733  0.539  0.001
  Li_i7  Li1+  0.333  0.004  0.539  0.001
  Li_i7  Li1+  0.804  0.333  0.139  0.001
  Li_i7  Li1+  0.604  0.333  0.939  0.001
  Li_i7  Li1+  0.333  0.204  0.939  0.001
  Li_i7  Li1+  0.933  0.204  0.139  0.001
  Li_i7  Li1+  0.533  0.604  0.539  0.001
  Li_i7  Li1+  0.733  0.204  0.939  0.001
  Li_i7  Li1+  0.204  0.733  0.739  0.001
  Li_i7  Li1+  0.004  0.533  0.339  0.001
  Li_i7  Li1+  0.404  0.133  0.939  0.001
  Li_i7  Li1+  0.004  0.333  0.539  0.001
  Li_i7  Li1+  0.804  0.333  0.339  0.001
  Li_i7  Li1+  0.333  0.604  0.739  0.001
  Li_i7  Li1+  0.533  0.004  0.939  0.001
  Li_i7  Li1+  0.933  0.204  0.339  0.001
  Li_i7  Li1+  0.604  0.533  0.139  0.001
  Li_i7  Li1+  0.404  0.733  0.739  0.001
  Li_i7  Li1+  0.004  0.933  0.539  0.001
  Li_i7  Li1+  0.733  0.404  0.139  0.001
  Li_i7  Li1+  0.004  0.533  0.939  0.001
  Li_i7  Li1+  0.533  0.604  0.739  0.001
  Li_i7  Li1+  0.804  0.333  0.539  0.001
  Li_i7  Li1+  0.004  0.133  0.539  0.001
  Li_i7  Li1+  0.133  0.804  0.539  0.001
  Li_i7  Li1+  0.933  0.204  0.539  0.001
  Li_i7  Li1+  0.204  0.533  0.139  0.001
  Li_i7  Li1+  0.204  0.133  0.739  0.001
  Li_i7  Li1+  0.604  0.533  0.339  0.001
  Li_i7  Li1+  0.404  0.333  0.139  0.001
  Li_i7  Li1+  0.204  0.733  0.939  0.001
  Li_i7  Li1+  0.733  0.404  0.339  0.001
  Li_i7  Li1+  0.804  0.333  0.739  0.001
  Li_i7  Li1+  0.404  0.733  0.939  0.001
  Li_i7  Li1+  0.133  0.404  0.339  0.001
  Li_i7  Li1+  0.933  0.204  0.739  0.001
  Li_i7  Li1+  0.533  0.204  0.139  0.001
  Li_i7  Li1+  0.533  0.604  0.939  0.001
  Li_i7  Li1+  0.333  0.404  0.139  0.001
  Li_i7  Li1+  0.333  0.604  0.939  0.001
  Li_i7  Li1+  0.604  0.533  0.539  0.001
  Li_i7  Li1+  0.133  0.404  0.939  0.001
  Li_i7  Li1+  0.804  0.333  0.939  0.001
  Li_i7  Li1+  0.333  0.004  0.739  0.001
  Li_i7  Li1+  0.733  0.404  0.539  0.001
  Li_i7  Li1+  0.933  0.204  0.939  0.001
  Li_i7  Li1+  0.004  0.733  0.739  0.001
  Li_i7  Li1+  0.004  0.333  0.939  0.001
  Li_i7  Li1+  0.404  0.933  0.139  0.001
  Li_i7  Li1+  0.404  0.333  0.339  0.001
  Li_i7  Li1+  0.133  0.004  0.139  0.001
  Li_i7  Li1+  0.533  0.804  0.139  0.001
  Li_i7  Li1+  0.804  0.533  0.139  0.001
  Li_i7  Li1+  0.604  0.533  0.739  0.001
  Li_i7  Li1+  0.133  0.604  0.739  0.001
  Li_i7  Li1+  0.933  0.404  0.139  0.001
  Li_i7  Li1+  0.533  0.204  0.339  0.001
  Li_i7  Li1+  0.733  0.404  0.739  0.001
  Li_i7  Li1+  0.204  0.933  0.139  0.001
  Li_i7  Li1+  0.204  0.533  0.339  0.001
  Li_i7  Li1+  0.004  0.933  0.739  0.001
  Li_i7  Li1+  0.333  0.804  0.139  0.001
  Li_i7  Li1+  0.804  0.533  0.339  0.001
  Li_i7  Li1+  0.404  0.933  0.339  0.001
  Li_i7  Li1+  0.133  0.204  0.539  0.001
  Li_i7  Li1+  0.933  0.404  0.339  0.001
  Li_i7  Li1+  0.604  0.533  0.939  0.001
  Li_i7  Li1+  0.333  0.404  0.339  0.001
  Li_i7  Li1+  0.533  0.804  0.339  0.001
  Li_i7  Li1+  0.733  0.404  0.939  0.001
  Li_i7  Li1+  0.404  0.333  0.539  0.001
  Li_i7  Li1+  0.204  0.133  0.939  0.001
  Li_i7  Li1+  0.804  0.533  0.539  0.001
  Li_i7  Li1+  0.133  0.204  0.939  0.001
  Li_i7  Li1+  0.533  0.204  0.539  0.001
  Li_i7  Li1+  0.933  0.404  0.539  0.001
  Li_i7  Li1+  0.133  0.804  0.739  0.001
  Li_i7  Li1+  0.333  0.004  0.939  0.001
  Li_i7  Li1+  0.604  0.733  0.139  0.001
  Li_i7  Li1+  0.404  0.933  0.539  0.001
  Li_i7  Li1+  0.204  0.933  0.339  0.001
  Li_i7  Li1+  0.733  0.604  0.139  0.001
  Li_i7  Li1+  0.804  0.533  0.739  0.001
  Li_i7  Li1+  0.133  0.004  0.339  0.001
  Li_i7  Li1+  0.533  0.804  0.539  0.001
  Li_i7  Li1+  0.933  0.404  0.739  0.001
  Li_i7  Li1+  0.133  0.004  0.539  0.001
  Li_i7  Li1+  0.333  0.804  0.339  0.001
  Li_i7  Li1+  0.404  0.333  0.739  0.001
  Li_i7  Li1+  0.204  0.533  0.539  0.001
  Li_i7  Li1+  0.604  0.733  0.339  0.001
  Li_i7  Li1+  0.004  0.733  0.139  0.001
  Li_i7  Li1+  0.804  0.533  0.939  0.001
  Li_i7  Li1+  0.533  0.204  0.739  0.001
  Li_i7  Li1+  0.733  0.604  0.339  0.001
  Li_i7  Li1+  0.933  0.404  0.939  0.001
  Li_i7  Li1+  0.404  0.933  0.739  0.001
  Li_i7  Li1+  0.004  0.533  0.539  0.001
  Li_i7  Li1+  0.333  0.404  0.539  0.001
  Li_i7  Li1+  0.533  0.804  0.739  0.001
  Li_i7  Li1+  0.004  0.733  0.939  0.001
  Li_i7  Li1+  0.004  0.333  0.339  0.001
  Li_i7  Li1+  0.804  0.733  0.139  0.001
  Li_i7  Li1+  0.604  0.733  0.539  0.001
  Li_i7  Li1+  0.204  0.933  0.539  0.001
  Li_i7  Li1+  0.933  0.604  0.139  0.001
  Li_i7  Li1+  0.204  0.333  0.139  0.001
  Li_i7  Li1+  0.733  0.604  0.539  0.001
  Li_i7  Li1+  0.404  0.333  0.939  0.001
  Li_i7  Li1+  0.004  0.933  0.939  0.001
  Li_i7  Li1+  0.404  0.933  0.939  0.001
  Li_i7  Li1+  0.333  0.804  0.539  0.001
  Li_i7  Li1+  0.804  0.733  0.339  0.001
  Li_i7  Li1+  0.533  0.204  0.939  0.001
  Li_i7  Li1+  0.533  0.804  0.939  0.001
  Li_i7  Li1+  0.933  0.604  0.339  0.001
  Li_i7  Li1+  0.604  0.733  0.739  0.001
  Li_i7  Li1+  0.133  0.604  0.139  0.001
  Li_i7  Li1+  0.333  0.204  0.139  0.001
  Li_i7  Li1+  0.733  0.604  0.739  0.001
  Li_i7  Li1+  0.204  0.533  0.739  0.001
  Li_i7  Li1+  0.133  0.604  0.939  0.001
  Li_i7  Li1+  0.804  0.733  0.539  0.001
  Li_i7  Li1+  0.133  0.804  0.939  0.001
  Li_i7  Li1+  0.333  0.404  0.739  0.001
  Li_i7  Li1+  0.933  0.604  0.539  0.001
  Li_i7  Li1+  0.604  0.133  0.139  0.001
  Li_i7  Li1+  0.404  0.533  0.139  0.001
  Li_i7  Li1+  0.604  0.733  0.939  0.001
  Li_i7  Li1+  0.204  0.933  0.739  0.001
  Li_i7  Li1+  0.733  0.004  0.139  0.001
  Li_i7  Li1+  0.733  0.604  0.939  0.001
  Li_i7  Li1+  0.804  0.733  0.739  0.001
  Li_i7  Li1+  0.004  0.133  0.739  0.001
  Li_i7  Li1+  0.533  0.404  0.139  0.001
  Li_i7  Li1+  0.933  0.604  0.739  0.001
  Li_i7  Li1+  0.133  0.404  0.539  0.001
  Li_i7  Li1+  0.333  0.804  0.739  0.001
  Li_i7  Li1+  0.004  0.133  0.339  0.001
  Li_i7  Li1+  0.133  0.204  0.339  0.001
  Li_i7  Li1+  0.604  0.933  0.139  0.001
  Li_i7  Li1+  0.604  0.133  0.339  0.001
  Li_i7  Li1+  0.804  0.733  0.939  0.001
  Li_i7  Li1+  0.204  0.333  0.339  0.001
  Li_i7  Li1+  0.733  0.804  0.139  0.001
  Li_i7  Li1+  0.933  0.604  0.939  0.001
  Li_i7  Li1+  0.004  0.533  0.139  0.001
  Li_i7  Li1+  0.733  0.004  0.339  0.001
  Li_i7  Li1+  0.404  0.533  0.339  0.001
  Li_i7  Li1+  0.204  0.533  0.939  0.001
  Li_i7  Li1+  0.004  0.333  0.739  0.001
  Li_i7  Li1+  0.533  0.404  0.339  0.001
  Li_i7  Li1+  0.804  0.933  0.139  0.001
  Li_i7  Li1+  0.604  0.933  0.339  0.001
  Li_i7  Li1+  0.204  0.933  0.939  0.001
  Li_i7  Li1+  0.933  0.804  0.139  0.001
  Li_i7  Li1+  0.333  0.204  0.339  0.001
  Li_i7  Li1+  0.733  0.804  0.339  0.001
  Li_i7  Li1+  0.604  0.133  0.539  0.001
  Li_i7  Li1+  0.333  0.404  0.939  0.001
  Li_i7  Li1+  0.333  0.804  0.939  0.001
  Li_i7  Li1+  0.733  0.004  0.539  0.001
  Li_i7  Li1+  0.804  0.933  0.339  0.001
  Li_i7  Li1+  0.204  0.133  0.139  0.001
  Li_i7  Li1+  0.004  0.933  0.139  0.001
  Li_i7  Li1+  0.933  0.804  0.339  0.001
  Li_i7  Li1+  0.604  0.933  0.539  0.001
  Li_i7  Li1+  0.404  0.533  0.539  0.001
  Li_i7  Li1+  0.004  0.733  0.339  0.001
  Li_i7  Li1+  0.733  0.804  0.539  0.001
  Li_i7  Li1+  0.333  0.004  0.139  0.001
  Li_i7  Li1+  0.533  0.404  0.539  0.001
  Li_i7  Li1+  0.804  0.933  0.539  0.001
  Li_i7  Li1+  0.604  0.133  0.739  0.001
  Li_i7  Li1+  0.004  0.333  0.139  0.001
  Li_i7  Li1+  0.933  0.804  0.539  0.001
  Li_i7  Li1+  0.133  0.804  0.139  0.001
  Li_i7  Li1+  0.733  0.004  0.739  0.001
  Li_i7  Li1+  0.604  0.933  0.739  0.001
  Li_i7  Li1+  0.404  0.133  0.139  0.001
  Li_i7  Li1+  0.204  0.733  0.139  0.001
  Li_i7  Li1+  0.733  0.804  0.739  0.001
  Li_i7  Li1+  0.804  0.933  0.739  0.001
  Li_i7  Li1+  0.204  0.333  0.539  0.001
  Li_i7  Li1+  0.533  0.004  0.139  0.001
  Li_i7  Li1+  0.933  0.804  0.739  0.001
  Li_i7  Li1+  0.404  0.533  0.739  0.001
  Li_i7  Li1+  0.133  0.404  0.139  0.001
  Li_i7  Li1+  0.604  0.133  0.939  0.001
  Li_i7  Li1+  0.333  0.604  0.139  0.001
  Li_i7  Li1+  0.604  0.933  0.939  0.001
  Li_i7  Li1+  0.533  0.404  0.739  0.001
  Li_i7  Li1+  0.804  0.933  0.939  0.001
  Li_i7  Li1+  0.733  0.004  0.939  0.001
  Li_i7  Li1+  0.733  0.804  0.939  0.001
  Li_i7  Li1+  0.933  0.804  0.939  0.001
  Li_i8  Li1+  0.533  0.204  0.375  0.001
  Li_i8  Li1+  0.133  0.404  0.375  0.001
  Li_i8  Li1+  0.333  0.604  0.775  0.001
  Li_i8  Li1+  0.004  0.333  0.175  0.001
  Li_i8  Li1+  0.333  0.204  0.775  0.001
  Li_i8  Li1+  0.604  0.933  0.375  0.001
  Li_i8  Li1+  0.667  0.867  0.236  0.001
  Li_i8  Li1+  0.004  0.733  0.175  0.001
  Li_i8  Li1+  0.067  0.667  0.036  0.001
  Li_i8  Li1+  0.404  0.933  0.975  0.001
  Li_i8  Li1+  0.733  0.804  0.375  0.001
  Li_i8  Li1+  0.467  0.867  0.836  0.001
  Li_i8  Li1+  0.067  0.267  0.036  0.001
  Li_i8  Li1+  0.404  0.333  0.575  0.001
  Li_i8  Li1+  0.467  0.267  0.436  0.001
  Li_i8  Li1+  0.533  0.804  0.975  0.001
  Li_i8  Li1+  0.004  0.133  0.175  0.001
  Li_i8  Li1+  0.004  0.133  0.775  0.001
  Li_i8  Li1+  0.604  0.933  0.575  0.001
  Li_i8  Li1+  0.667  0.867  0.436  0.001
  Li_i8  Li1+  0.204  0.733  0.975  0.001
  Li_i8  Li1+  0.533  0.204  0.575  0.001
  Li_i8  Li1+  0.267  0.667  0.836  0.001
  Li_i8  Li1+  0.733  0.804  0.575  0.001
  Li_i8  Li1+  0.204  0.133  0.375  0.001
  Li_i8  Li1+  0.267  0.067  0.236  0.001
  Li_i8  Li1+  0.604  0.133  0.175  0.001
  Li_i8  Li1+  0.667  0.067  0.036  0.001
  Li_i8  Li1+  0.204  0.333  0.975  0.001
  Li_i8  Li1+  0.333  0.604  0.975  0.001
  Li_i8  Li1+  0.267  0.267  0.836  0.001
  Li_i8  Li1+  0.604  0.933  0.775  0.001
  Li_i8  Li1+  0.667  0.867  0.636  0.001
  Li_i8  Li1+  0.733  0.004  0.175  0.001
  Li_i8  Li1+  0.004  0.933  0.175  0.001
  Li_i8  Li1+  0.404  0.333  0.775  0.001
  Li_i8  Li1+  0.733  0.804  0.775  0.001
  Li_i8  Li1+  0.467  0.267  0.636  0.001
  Li_i8  Li1+  0.067  0.867  0.036  0.001
  Li_i8  Li1+  0.133  0.604  0.175  0.001
  Li_i8  Li1+  0.333  0.204  0.975  0.001
  Li_i8  Li1+  0.533  0.204  0.775  0.001
  Li_i8  Li1+  0.604  0.133  0.375  0.001
  Li_i8  Li1+  0.667  0.067  0.236  0.001
  Li_i8  Li1+  0.604  0.933  0.975  0.001
  Li_i8  Li1+  0.667  0.867  0.836  0.001
  Li_i8  Li1+  0.333  0.004  0.375  0.001
  Li_i8  Li1+  0.004  0.333  0.975  0.001
  Li_i8  Li1+  0.204  0.933  0.175  0.001
  Li_i8  Li1+  0.733  0.804  0.975  0.001
  Li_i8  Li1+  0.733  0.004  0.375  0.001
  Li_i8  Li1+  0.267  0.867  0.036  0.001
  Li_i8  Li1+  0.067  0.267  0.836  0.001
  Li_i8  Li1+  0.133  0.804  0.175  0.001
  Li_i8  Li1+  0.004  0.133  0.975  0.001
  Li_i8  Li1+  0.404  0.333  0.975  0.001
  Li_i8  Li1+  0.467  0.267  0.836  0.001
  Li_i8  Li1+  0.804  0.133  0.175  0.001
  Li_i8  Li1+  0.867  0.067  0.036  0.001
  Li_i8  Li1+  0.333  0.804  0.175  0.001
  Li_i8  Li1+  0.604  0.133  0.575  0.001
  Li_i8  Li1+  0.667  0.067  0.436  0.001
  Li_i8  Li1+  0.933  0.004  0.175  0.001
  Li_i8  Li1+  0.004  0.533  0.575  0.001
  Li_i8  Li1+  0.067  0.467  0.436  0.001
  Li_i8  Li1+  0.533  0.204  0.975  0.001
  Li_i8  Li1+  0.733  0.004  0.575  0.001
  Li_i8  Li1+  0.204  0.533  0.175  0.001
  Li_i8  Li1+  0.267  0.467  0.036  0.001
  Li_i8  Li1+  0.004  0.333  0.575  0.001
  Li_i8  Li1+  0.804  0.133  0.375  0.001
  Li_i8  Li1+  0.867  0.067  0.236  0.001
  Li_i8  Li1+  0.204  0.133  0.575  0.001
  Li_i8  Li1+  0.267  0.067  0.436  0.001
  Li_i8  Li1+  0.204  0.933  0.375  0.001
  Li_i8  Li1+  0.933  0.004  0.375  0.001
  Li_i8  Li1+  0.267  0.867  0.236  0.001
  Li_i8  Li1+  0.604  0.133  0.775  0.001
  Li_i8  Li1+  0.667  0.067  0.636  0.001
  Li_i8  Li1+  0.404  0.533  0.175  0.001
  Li_i8  Li1+  0.467  0.467  0.036  0.001
  Li_i8  Li1+  0.333  0.404  0.175  0.001
  Li_i8  Li1+  0.733  0.004  0.775  0.001
  Li_i8  Li1+  0.804  0.133  0.575  0.001
  Li_i8  Li1+  0.867  0.067  0.436  0.001
  Li_i8  Li1+  0.067  0.267  0.436  0.001
  Li_i8  Li1+  0.004  0.733  0.375  0.001
  Li_i8  Li1+  0.533  0.404  0.175  0.001
  Li_i8  Li1+  0.933  0.004  0.575  0.001
  Li_i8  Li1+  0.333  0.804  0.375  0.001
  Li_i8  Li1+  0.067  0.667  0.236  0.001
  Li_i8  Li1+  0.333  0.004  0.575  0.001
  Li_i8  Li1+  0.004  0.933  0.375  0.001
  Li_i8  Li1+  0.604  0.133  0.975  0.001
  Li_i8  Li1+  0.667  0.067  0.836  0.001
  Li_i8  Li1+  0.067  0.867  0.236  0.001
  Li_i8  Li1+  0.804  0.133  0.775  0.001
  Li_i8  Li1+  0.867  0.067  0.636  0.001
  Li_i8  Li1+  0.133  0.204  0.975  0.001
  Li_i8  Li1+  0.204  0.533  0.375  0.001
  Li_i8  Li1+  0.733  0.004  0.975  0.001
  Li_i8  Li1+  0.933  0.004  0.775  0.001
  Li_i8  Li1+  0.404  0.533  0.375  0.001
  Li_i8  Li1+  0.467  0.467  0.236  0.001
  Li_i8  Li1+  0.267  0.467  0.236  0.001
  Li_i8  Li1+  0.204  0.933  0.575  0.001
  Li_i8  Li1+  0.267  0.867  0.436  0.001
  Li_i8  Li1+  0.533  0.404  0.375  0.001
  Li_i8  Li1+  0.133  0.404  0.575  0.001
  Li_i8  Li1+  0.804  0.133  0.975  0.001
  Li_i8  Li1+  0.867  0.067  0.836  0.001
  Li_i8  Li1+  0.604  0.333  0.175  0.001
  Li_i8  Li1+  0.667  0.267  0.036  0.001
  Li_i8  Li1+  0.133  0.204  0.175  0.001
  Li_i8  Li1+  0.933  0.004  0.975  0.001
  Li_i8  Li1+  0.133  0.804  0.375  0.001
  Li_i8  Li1+  0.333  0.804  0.575  0.001
  Li_i8  Li1+  0.733  0.204  0.175  0.001
  Li_i8  Li1+  0.333  0.404  0.375  0.001
  Li_i8  Li1+  0.133  0.604  0.375  0.001
  Li_i8  Li1+  0.204  0.133  0.775  0.001
  Li_i8  Li1+  0.404  0.533  0.575  0.001
  Li_i8  Li1+  0.804  0.333  0.175  0.001
  Li_i8  Li1+  0.867  0.267  0.036  0.001
  Li_i8  Li1+  0.467  0.467  0.436  0.001
  Li_i8  Li1+  0.267  0.067  0.636  0.001
  Li_i8  Li1+  0.067  0.067  0.836  0.001
  Li_i8  Li1+  0.933  0.204  0.175  0.001
  Li_i8  Li1+  0.604  0.333  0.375  0.001
  Li_i8  Li1+  0.667  0.267  0.236  0.001
  Li_i8  Li1+  0.067  0.067  0.636  0.001
  Li_i8  Li1+  0.533  0.404  0.575  0.001
  Li_i8  Li1+  0.133  0.204  0.575  0.001
  Li_i8  Li1+  0.733  0.204  0.375  0.001
  Li_i8  Li1+  0.204  0.933  0.775  0.001
  Li_i8  Li1+  0.804  0.333  0.375  0.001
  Li_i8  Li1+  0.867  0.267  0.236  0.001
  Li_i8  Li1+  0.267  0.867  0.636  0.001
  Li_i8  Li1+  0.333  0.004  0.775  0.001
  Li_i8  Li1+  0.204  0.533  0.575  0.001
  Li_i8  Li1+  0.933  0.204  0.375  0.001
  Li_i8  Li1+  0.267  0.467  0.436  0.001
  Li_i8  Li1+  0.333  0.804  0.775  0.001
  Li_i8  Li1+  0.404  0.533  0.775  0.001
  Li_i8  Li1+  0.604  0.333  0.575  0.001
  Li_i8  Li1+  0.667  0.267  0.436  0.001
  Li_i8  Li1+  0.467  0.467  0.636  0.001
  Li_i8  Li1+  0.133  0.004  0.175  0.001
  Li_i8  Li1+  0.804  0.333  0.575  0.001
  Li_i8  Li1+  0.867  0.267  0.436  0.001
  Li_i8  Li1+  0.133  0.004  0.575  0.001
  Li_i8  Li1+  0.733  0.204  0.575  0.001
  Li_i8  Li1+  0.133  0.004  0.975  0.001
  Li_i8  Li1+  0.933  0.204  0.575  0.001
  Li_i8  Li1+  0.533  0.404  0.775  0.001
  Li_i8  Li1+  0.333  0.404  0.575  0.001
  Li_i8  Li1+  0.004  0.933  0.575  0.001
  Li_i8  Li1+  0.067  0.867  0.436  0.001
  Li_i8  Li1+  0.004  0.533  0.775  0.001
  Li_i8  Li1+  0.204  0.933  0.975  0.001
  Li_i8  Li1+  0.604  0.333  0.775  0.001
  Li_i8  Li1+  0.804  0.333  0.775  0.001
  Li_i8  Li1+  0.867  0.267  0.636  0.001
  Li_i8  Li1+  0.667  0.267  0.636  0.001
  Li_i8  Li1+  0.267  0.867  0.836  0.001
  Li_i8  Li1+  0.004  0.733  0.575  0.001
  Li_i8  Li1+  0.933  0.204  0.775  0.001
  Li_i8  Li1+  0.404  0.533  0.975  0.001
  Li_i8  Li1+  0.733  0.204  0.775  0.001
  Li_i8  Li1+  0.467  0.467  0.836  0.001
  Li_i8  Li1+  0.204  0.133  0.975  0.001
  Li_i8  Li1+  0.267  0.067  0.836  0.001
  Li_i8  Li1+  0.333  0.804  0.975  0.001
  Li_i8  Li1+  0.533  0.404  0.975  0.001
  Li_i8  Li1+  0.804  0.333  0.975  0.001
  Li_i8  Li1+  0.867  0.267  0.836  0.001
  Li_i8  Li1+  0.067  0.667  0.436  0.001
  Li_i8  Li1+  0.204  0.533  0.775  0.001
  Li_i8  Li1+  0.604  0.333  0.975  0.001
  Li_i8  Li1+  0.933  0.204  0.975  0.001
  Li_i8  Li1+  0.667  0.267  0.836  0.001
  Li_i8  Li1+  0.267  0.467  0.636  0.001
  Li_i8  Li1+  0.133  0.804  0.575  0.001
  Li_i8  Li1+  0.067  0.467  0.636  0.001
  Li_i8  Li1+  0.733  0.204  0.975  0.001
  Li_i8  Li1+  0.333  0.004  0.975  0.001
  Li_i8  Li1+  0.333  0.404  0.775  0.001
  Li_i8  Li1+  0.804  0.533  0.175  0.001
  Li_i8  Li1+  0.867  0.467  0.036  0.001
  Li_i8  Li1+  0.404  0.733  0.175  0.001
  Li_i8  Li1+  0.467  0.667  0.036  0.001
  Li_i8  Li1+  0.404  0.133  0.175  0.001
  Li_i8  Li1+  0.933  0.404  0.175  0.001
  Li_i8  Li1+  0.467  0.067  0.036  0.001
  Li_i8  Li1+  0.004  0.533  0.175  0.001
  Li_i8  Li1+  0.604  0.533  0.175  0.001
  Li_i8  Li1+  0.667  0.467  0.036  0.001
  Li_i8  Li1+  0.533  0.604  0.175  0.001
  Li_i8  Li1+  0.067  0.467  0.036  0.001
  Li_i8  Li1+  0.133  0.604  0.575  0.001
  Li_i8  Li1+  0.804  0.533  0.375  0.001
  Li_i8  Li1+  0.867  0.467  0.236  0.001
  Li_i8  Li1+  0.733  0.404  0.175  0.001
  Li_i8  Li1+  0.533  0.004  0.175  0.001
  Li_i8  Li1+  0.067  0.067  0.036  0.001
  Li_i8  Li1+  0.933  0.404  0.375  0.001
  Li_i8  Li1+  0.133  0.404  0.775  0.001
  Li_i8  Li1+  0.133  0.004  0.775  0.001
  Li_i8  Li1+  0.004  0.933  0.775  0.001
  Li_i8  Li1+  0.404  0.733  0.375  0.001
  Li_i8  Li1+  0.467  0.667  0.236  0.001
  Li_i8  Li1+  0.604  0.533  0.375  0.001
  Li_i8  Li1+  0.667  0.467  0.236  0.001
  Li_i8  Li1+  0.804  0.533  0.575  0.001
  Li_i8  Li1+  0.867  0.467  0.436  0.001
  Li_i8  Li1+  0.204  0.533  0.975  0.001
  Li_i8  Li1+  0.267  0.467  0.836  0.001
  Li_i8  Li1+  0.204  0.333  0.175  0.001
  Li_i8  Li1+  0.933  0.404  0.575  0.001
  Li_i8  Li1+  0.733  0.404  0.375  0.001
  Li_i8  Li1+  0.533  0.604  0.375  0.001
  Li_i8  Li1+  0.404  0.133  0.375  0.001
  Li_i8  Li1+  0.467  0.067  0.236  0.001
  Li_i8  Li1+  0.267  0.267  0.036  0.001
  Li_i8  Li1+  0.067  0.867  0.636  0.001
  Li_i8  Li1+  0.333  0.404  0.975  0.001
  Li_i8  Li1+  0.804  0.533  0.775  0.001
  Li_i8  Li1+  0.867  0.467  0.636  0.001
  Li_i8  Li1+  0.533  0.004  0.375  0.001
  Li_i8  Li1+  0.604  0.533  0.575  0.001
  Li_i8  Li1+  0.667  0.467  0.436  0.001
  Li_i8  Li1+  0.933  0.404  0.775  0.001
  Li_i8  Li1+  0.004  0.333  0.375  0.001
  Li_i8  Li1+  0.404  0.733  0.575  0.001
  Li_i8  Li1+  0.467  0.667  0.436  0.001
  Li_i8  Li1+  0.733  0.404  0.575  0.001
  Li_i8  Li1+  0.133  0.404  0.175  0.001
  Li_i8  Li1+  0.333  0.204  0.175  0.001
  Li_i8  Li1+  0.067  0.267  0.236  0.001
  Li_i8  Li1+  0.804  0.533  0.975  0.001
  Li_i8  Li1+  0.867  0.467  0.836  0.001
  Li_i8  Li1+  0.533  0.604  0.575  0.001
  Li_i8  Li1+  0.133  0.804  0.775  0.001
  Li_i8  Li1+  0.004  0.333  0.775  0.001
  Li_i8  Li1+  0.933  0.404  0.975  0.001
  Li_i8  Li1+  0.004  0.733  0.775  0.001
  Li_i8  Li1+  0.604  0.533  0.775  0.001
  Li_i8  Li1+  0.667  0.467  0.636  0.001
  Li_i8  Li1+  0.404  0.133  0.575  0.001
  Li_i8  Li1+  0.467  0.067  0.436  0.001
  Li_i8  Li1+  0.204  0.733  0.175  0.001
  Li_i8  Li1+  0.733  0.404  0.775  0.001
  Li_i8  Li1+  0.804  0.733  0.175  0.001
  Li_i8  Li1+  0.867  0.667  0.036  0.001
  Li_i8  Li1+  0.267  0.667  0.036  0.001
  Li_i8  Li1+  0.404  0.733  0.775  0.001
  Li_i8  Li1+  0.467  0.667  0.636  0.001
  Li_i8  Li1+  0.933  0.604  0.175  0.001
  Li_i8  Li1+  0.067  0.667  0.636  0.001
  Li_i8  Li1+  0.533  0.004  0.575  0.001
  Li_i8  Li1+  0.067  0.267  0.636  0.001
  Li_i8  Li1+  0.533  0.604  0.775  0.001
  Li_i8  Li1+  0.604  0.533  0.975  0.001
  Li_i8  Li1+  0.667  0.467  0.836  0.001
  Li_i8  Li1+  0.133  0.004  0.375  0.001
  Li_i8  Li1+  0.804  0.733  0.375  0.001
  Li_i8  Li1+  0.867  0.667  0.236  0.001
  Li_i8  Li1+  0.333  0.604  0.175  0.001
  Li_i8  Li1+  0.204  0.333  0.375  0.001
  Li_i8  Li1+  0.733  0.404  0.975  0.001
  Li_i8  Li1+  0.933  0.604  0.375  0.001
  Li_i8  Li1+  0.267  0.267  0.236  0.001
  Li_i8  Li1+  0.004  0.533  0.975  0.001
  Li_i8  Li1+  0.133  0.604  0.775  0.001
  Li_i8  Li1+  0.404  0.133  0.775  0.001
  Li_i8  Li1+  0.404  0.733  0.975  0.001
  Li_i8  Li1+  0.467  0.667  0.836  0.001
  Li_i8  Li1+  0.467  0.067  0.636  0.001
  Li_i8  Li1+  0.804  0.733  0.575  0.001
  Li_i8  Li1+  0.867  0.667  0.436  0.001
  Li_i8  Li1+  0.604  0.733  0.175  0.001
  Li_i8  Li1+  0.667  0.667  0.036  0.001
  Li_i8  Li1+  0.004  0.933  0.975  0.001
  Li_i8  Li1+  0.933  0.604  0.575  0.001
  Li_i8  Li1+  0.333  0.204  0.375  0.001
  Li_i8  Li1+  0.533  0.604  0.975  0.001
  Li_i8  Li1+  0.733  0.604  0.175  0.001
  Li_i8  Li1+  0.067  0.867  0.836  0.001
  Li_i8  Li1+  0.533  0.004  0.775  0.001
  Li_i8  Li1+  0.204  0.733  0.375  0.001
  Li_i8  Li1+  0.267  0.667  0.236  0.001
  Li_i8  Li1+  0.804  0.733  0.775  0.001
  Li_i8  Li1+  0.867  0.667  0.636  0.001
  Li_i8  Li1+  0.067  0.467  0.836  0.001
  Li_i8  Li1+  0.004  0.133  0.375  0.001
  Li_i8  Li1+  0.004  0.133  0.575  0.001
  Li_i8  Li1+  0.933  0.604  0.775  0.001
  Li_i8  Li1+  0.604  0.733  0.375  0.001
  Li_i8  Li1+  0.667  0.667  0.236  0.001
  Li_i8  Li1+  0.404  0.933  0.175  0.001
  Li_i8  Li1+  0.467  0.867  0.036  0.001
  Li_i8  Li1+  0.333  0.604  0.375  0.001
  Li_i8  Li1+  0.733  0.604  0.375  0.001
  Li_i8  Li1+  0.133  0.804  0.975  0.001
  Li_i8  Li1+  0.804  0.733  0.975  0.001
  Li_i8  Li1+  0.867  0.667  0.836  0.001
  Li_i8  Li1+  0.404  0.133  0.975  0.001
  Li_i8  Li1+  0.533  0.804  0.175  0.001
  Li_i8  Li1+  0.467  0.067  0.836  0.001
  Li_i8  Li1+  0.933  0.604  0.975  0.001
  Li_i8  Li1+  0.133  0.204  0.775  0.001
  Li_i8  Li1+  0.133  0.404  0.975  0.001
  Li_i8  Li1+  0.204  0.333  0.575  0.001
  Li_i8  Li1+  0.604  0.733  0.575  0.001
  Li_i8  Li1+  0.667  0.667  0.436  0.001
  Li_i8  Li1+  0.533  0.004  0.975  0.001
  Li_i8  Li1+  0.267  0.267  0.436  0.001
  Li_i8  Li1+  0.804  0.933  0.175  0.001
  Li_i8  Li1+  0.867  0.867  0.036  0.001
  Li_i8  Li1+  0.004  0.533  0.375  0.001
  Li_i8  Li1+  0.733  0.604  0.575  0.001
  Li_i8  Li1+  0.404  0.933  0.375  0.001
  Li_i8  Li1+  0.933  0.804  0.175  0.001
  Li_i8  Li1+  0.467  0.867  0.236  0.001
  Li_i8  Li1+  0.067  0.467  0.236  0.001
  Li_i8  Li1+  0.204  0.733  0.575  0.001
  Li_i8  Li1+  0.267  0.667  0.436  0.001
  Li_i8  Li1+  0.533  0.804  0.375  0.001
  Li_i8  Li1+  0.004  0.733  0.975  0.001
  Li_i8  Li1+  0.604  0.733  0.775  0.001
  Li_i8  Li1+  0.804  0.933  0.375  0.001
  Li_i8  Li1+  0.867  0.867  0.236  0.001
  Li_i8  Li1+  0.667  0.667  0.636  0.001
  Li_i8  Li1+  0.333  0.204  0.575  0.001
  Li_i8  Li1+  0.404  0.333  0.175  0.001
  Li_i8  Li1+  0.933  0.804  0.375  0.001
  Li_i8  Li1+  0.467  0.267  0.036  0.001
  Li_i8  Li1+  0.733  0.604  0.775  0.001
  Li_i8  Li1+  0.067  0.667  0.836  0.001
  Li_i8  Li1+  0.333  0.604  0.575  0.001
  Li_i8  Li1+  0.133  0.204  0.375  0.001
  Li_i8  Li1+  0.404  0.933  0.575  0.001
  Li_i8  Li1+  0.467  0.867  0.436  0.001
  Li_i8  Li1+  0.804  0.933  0.575  0.001
  Li_i8  Li1+  0.867  0.867  0.436  0.001
  Li_i8  Li1+  0.533  0.204  0.175  0.001
  Li_i8  Li1+  0.204  0.133  0.175  0.001
  Li_i8  Li1+  0.604  0.733  0.975  0.001
  Li_i8  Li1+  0.933  0.804  0.575  0.001
  Li_i8  Li1+  0.667  0.667  0.836  0.001
  Li_i8  Li1+  0.267  0.067  0.036  0.001
  Li_i8  Li1+  0.533  0.804  0.575  0.001
  Li_i8  Li1+  0.067  0.067  0.436  0.001
  Li_i8  Li1+  0.733  0.604  0.975  0.001
  Li_i8  Li1+  0.067  0.067  0.236  0.001
  Li_i8  Li1+  0.133  0.604  0.975  0.001
  Li_i8  Li1+  0.804  0.933  0.775  0.001
  Li_i8  Li1+  0.867  0.867  0.636  0.001
  Li_i8  Li1+  0.204  0.333  0.775  0.001
  Li_i8  Li1+  0.204  0.733  0.775  0.001
  Li_i8  Li1+  0.404  0.333  0.375  0.001
  Li_i8  Li1+  0.933  0.804  0.775  0.001
  Li_i8  Li1+  0.467  0.267  0.236  0.001
  Li_i8  Li1+  0.404  0.933  0.775  0.001
  Li_i8  Li1+  0.604  0.933  0.175  0.001
  Li_i8  Li1+  0.667  0.867  0.036  0.001
  Li_i8  Li1+  0.467  0.867  0.636  0.001
  Li_i8  Li1+  0.267  0.667  0.636  0.001
  Li_i8  Li1+  0.267  0.267  0.636  0.001
  Li_i8  Li1+  0.804  0.933  0.975  0.001
  Li_i8  Li1+  0.867  0.867  0.836  0.001
  Li_i8  Li1+  0.733  0.804  0.175  0.001
  Li_i8  Li1+  0.333  0.004  0.175  0.001
  Li_i8  Li1+  0.533  0.804  0.775  0.001
  Li_i8  Li1+  0.933  0.804  0.975  0.001
  Li_i9  Li1+  0.250  0.446  0.042  0.001
  Li_i9  Li1+  0.050  0.446  0.642  0.001
  Li_i9  Li1+  0.450  0.846  0.842  0.001
  Li_i9  Li1+  0.450  0.046  0.242  0.001
  Li_i9  Li1+  0.650  0.446  0.242  0.001
  Li_i9  Li1+  0.450  0.246  0.042  0.001
  Li_i9  Li1+  0.250  0.046  0.642  0.001
  Li_i9  Li1+  0.850  0.646  0.242  0.001
  Li_i9  Li1+  0.850  0.046  0.042  0.001
  Li_i9  Li1+  0.650  0.246  0.042  0.001
  Li_i9  Li1+  0.450  0.446  0.842  0.001
  Li_i9  Li1+  0.650  0.646  0.642  0.001
  Li_i9  Li1+  0.850  0.246  0.642  0.001
  Li_i9  Li1+  0.450  0.646  0.842  0.001
  Li_i9  Li1+  0.250  0.646  0.842  0.001
  Li_i9  Li1+  0.250  0.046  0.242  0.001
  Li_i9  Li1+  0.250  0.446  0.642  0.001
  Li_i9  Li1+  0.250  0.646  0.242  0.001
  Li_i9  Li1+  0.050  0.046  0.042  0.001
  Li_i9  Li1+  0.050  0.246  0.442  0.001
  Li_i9  Li1+  0.050  0.246  0.242  0.001
  Li_i9  Li1+  0.850  0.646  0.442  0.001
  Li_i9  Li1+  0.050  0.646  0.642  0.001
  Li_i9  Li1+  0.650  0.446  0.442  0.001
  Li_i9  Li1+  0.850  0.046  0.242  0.001
  Li_i9  Li1+  0.650  0.046  0.042  0.001
  Li_i9  Li1+  0.450  0.446  0.042  0.001
  Li_i9  Li1+  0.850  0.246  0.842  0.001
  Li_i9  Li1+  0.250  0.846  0.642  0.001
  Li_i9  Li1+  0.650  0.646  0.842  0.001
  Li_i9  Li1+  0.650  0.246  0.242  0.001
  Li_i9  Li1+  0.250  0.246  0.642  0.001
  Li_i9  Li1+  0.050  0.846  0.242  0.001
  Li_i9  Li1+  0.050  0.246  0.842  0.001
  Li_i9  Li1+  0.450  0.846  0.042  0.001
  Li_i9  Li1+  0.850  0.646  0.642  0.001
  Li_i9  Li1+  0.450  0.646  0.042  0.001
  Li_i9  Li1+  0.450  0.246  0.242  0.001
  Li_i9  Li1+  0.450  0.046  0.442  0.001
  Li_i9  Li1+  0.050  0.046  0.842  0.001
  Li_i9  Li1+  0.850  0.046  0.442  0.001
  Li_i9  Li1+  0.050  0.046  0.442  0.001
  Li_i9  Li1+  0.850  0.446  0.042  0.001
  Li_i9  Li1+  0.650  0.446  0.642  0.001
  Li_i9  Li1+  0.050  0.046  0.242  0.001
  Li_i9  Li1+  0.250  0.846  0.042  0.001
  Li_i9  Li1+  0.650  0.846  0.042  0.001
  Li_i9  Li1+  0.650  0.046  0.242  0.001
  Li_i9  Li1+  0.250  0.446  0.242  0.001
  Li_i9  Li1+  0.850  0.646  0.842  0.001
  Li_i9  Li1+  0.650  0.246  0.442  0.001
  Li_i9  Li1+  0.250  0.246  0.242  0.001
  Li_i9  Li1+  0.050  0.846  0.642  0.001
  Li_i9  Li1+  0.450  0.446  0.242  0.001
  Li_i9  Li1+  0.250  0.646  0.442  0.001
  Li_i9  Li1+  0.250  0.446  0.842  0.001
  Li_i9  Li1+  0.850  0.046  0.642  0.001
  Li_i9  Li1+  0.850  0.446  0.242  0.001
  Li_i9  Li1+  0.450  0.846  0.242  0.001
  Li_i9  Li1+  0.050  0.646  0.442  0.001
  Li_i9  Li1+  0.450  0.646  0.242  0.001
  Li_i9  Li1+  0.650  0.446  0.842  0.001
  Li_i9  Li1+  0.250  0.846  0.842  0.001
  Li_i9  Li1+  0.850  0.846  0.042  0.001
  Li_i9  Li1+  0.650  0.846  0.242  0.001
  Li_i9  Li1+  0.050  0.446  0.042  0.001
  Li_i9  Li1+  0.450  0.246  0.442  0.001
  Li_i9  Li1+  0.250  0.046  0.842  0.001
  Li_i9  Li1+  0.650  0.046  0.442  0.001
  Li_i9  Li1+  0.650  0.246  0.642  0.001
  Li_i9  Li1+  0.450  0.046  0.642  0.001
  Li_i9  Li1+  0.250  0.046  0.042  0.001
  Li_i9  Li1+  0.850  0.446  0.442  0.001
  Li_i9  Li1+  0.850  0.046  0.842  0.001
  Li_i9  Li1+  0.250  0.046  0.442  0.001
  Li_i9  Li1+  0.050  0.046  0.642  0.001
  Li_i9  Li1+  0.250  0.246  0.842  0.001
  Li_i9  Li1+  0.850  0.846  0.242  0.001
  Li_i9  Li1+  0.050  0.846  0.042  0.001
  Li_i9  Li1+  0.450  0.446  0.442  0.001
  Li_i9  Li1+  0.650  0.646  0.042  0.001
  Li_i9  Li1+  0.650  0.846  0.442  0.001
  Li_i9  Li1+  0.450  0.846  0.442  0.001
  Li_i9  Li1+  0.250  0.846  0.242  0.001
  Li_i9  Li1+  0.050  0.246  0.642  0.001
  Li_i9  Li1+  0.450  0.646  0.442  0.001
  Li_i9  Li1+  0.050  0.646  0.242  0.001
  Li_i9  Li1+  0.850  0.446  0.642  0.001
  Li_i9  Li1+  0.050  0.446  0.242  0.001
  Li_i9  Li1+  0.850  0.246  0.042  0.001
  Li_i9  Li1+  0.650  0.246  0.842  0.001
  Li_i9  Li1+  0.850  0.846  0.442  0.001
  Li_i9  Li1+  0.650  0.046  0.642  0.001
  Li_i9  Li1+  0.250  0.446  0.442  0.001
  Li_i9  Li1+  0.250  0.646  0.642  0.001
  Li_i9  Li1+  0.450  0.246  0.642  0.001
  Li_i9  Li1+  0.450  0.046  0.042  0.001
  Li_i9  Li1+  0.050  0.246  0.042  0.001
  Li_i9  Li1+  0.650  0.846  0.642  0.001
  Li_i9  Li1+  0.650  0.646  0.242  0.001
  Li_i9  Li1+  0.450  0.046  0.842  0.001
  Li_i9  Li1+  0.250  0.646  0.042  0.001
  Li_i9  Li1+  0.850  0.446  0.842  0.001
  Li_i9  Li1+  0.050  0.646  0.042  0.001
  Li_i9  Li1+  0.450  0.846  0.642  0.001
  Li_i9  Li1+  0.850  0.846  0.642  0.001
  Li_i9  Li1+  0.850  0.246  0.242  0.001
  Li_i9  Li1+  0.250  0.246  0.442  0.001
  Li_i9  Li1+  0.450  0.446  0.642  0.001
  Li_i9  Li1+  0.050  0.846  0.442  0.001
  Li_i9  Li1+  0.650  0.446  0.042  0.001
  Li_i9  Li1+  0.450  0.646  0.642  0.001
  Li_i9  Li1+  0.650  0.046  0.842  0.001
  Li_i9  Li1+  0.050  0.446  0.442  0.001
  Li_i9  Li1+  0.050  0.646  0.842  0.001
  Li_i9  Li1+  0.650  0.846  0.842  0.001
  Li_i9  Li1+  0.050  0.446  0.842  0.001
  Li_i9  Li1+  0.850  0.646  0.042  0.001
  Li_i9  Li1+  0.650  0.646  0.442  0.001
  Li_i9  Li1+  0.850  0.846  0.842  0.001
  Li_i9  Li1+  0.250  0.846  0.442  0.001
  Li_i9  Li1+  0.250  0.246  0.042  0.001
  Li_i9  Li1+  0.850  0.246  0.442  0.001
  Li_i9  Li1+  0.050  0.846  0.842  0.001
  Li_i9  Li1+  0.450  0.246  0.842  0.001
  Li_i10  Li1+  0.846  0.046  0.206  0.001
  Li_i10  Li1+  0.246  0.846  0.406  0.001
  Li_i10  Li1+  0.646  0.446  0.606  0.001
  Li_i10  Li1+  0.446  0.246  0.606  0.001
  Li_i10  Li1+  0.046  0.246  0.606  0.001
  Li_i10  Li1+  0.246  0.646  0.206  0.001
  Li_i10  Li1+  0.246  0.646  0.806  0.001
  Li_i10  Li1+  0.246  0.246  0.206  0.001
  Li_i10  Li1+  0.446  0.646  0.406  0.001
  Li_i10  Li1+  0.646  0.046  0.406  0.001
  Li_i10  Li1+  0.246  0.046  0.406  0.001
  Li_i10  Li1+  0.846  0.246  0.806  0.001
  Li_i10  Li1+  0.246  0.046  0.806  0.001
  Li_i10  Li1+  0.646  0.846  0.006  0.001
  Li_i10  Li1+  0.846  0.646  0.406  0.001
  Li_i10  Li1+  0.446  0.846  0.406  0.001
  Li_i10  Li1+  0.046  0.646  0.806  0.001
  Li_i10  Li1+  0.846  0.046  0.406  0.001
  Li_i10  Li1+  0.046  0.446  0.006  0.001
  Li_i10  Li1+  0.446  0.046  0.206  0.001
  Li_i10  Li1+  0.646  0.246  0.606  0.001
  Li_i10  Li1+  0.646  0.446  0.806  0.001
  Li_i10  Li1+  0.246  0.446  0.206  0.001
  Li_i10  Li1+  0.046  0.846  0.406  0.001
  Li_i10  Li1+  0.446  0.446  0.606  0.001
  Li_i10  Li1+  0.046  0.246  0.206  0.001
  Li_i10  Li1+  0.046  0.246  0.406  0.001
  Li_i10  Li1+  0.846  0.446  0.006  0.001
  Li_i10  Li1+  0.446  0.246  0.006  0.001
  Li_i10  Li1+  0.846  0.646  0.606  0.001
  Li_i10  Li1+  0.446  0.246  0.806  0.001
  Li_i10  Li1+  0.046  0.046  0.606  0.001
  Li_i10  Li1+  0.646  0.846  0.206  0.001
  Li_i10  Li1+  0.646  0.046  0.606  0.001
  Li_i10  Li1+  0.846  0.046  0.606  0.001
  Li_i10  Li1+  0.046  0.646  0.606  0.001
  Li_i10  Li1+  0.446  0.646  0.606  0.001
  Li_i10  Li1+  0.246  0.846  0.606  0.001
  Li_i10  Li1+  0.446  0.846  0.606  0.001
  Li_i10  Li1+  0.246  0.446  0.806  0.001
  Li_i10  Li1+  0.646  0.646  0.006  0.001
  Li_i10  Li1+  0.646  0.246  0.806  0.001
  Li_i10  Li1+  0.046  0.446  0.206  0.001
  Li_i10  Li1+  0.846  0.446  0.206  0.001
  Li_i10  Li1+  0.846  0.646  0.806  0.001
  Li_i10  Li1+  0.246  0.246  0.806  0.001
  Li_i10  Li1+  0.246  0.846  0.006  0.001
  Li_i10  Li1+  0.246  0.646  0.406  0.001
  Li_i10  Li1+  0.046  0.846  0.806  0.001
  Li_i10  Li1+  0.046  0.046  0.406  0.001
  Li_i10  Li1+  0.646  0.846  0.406  0.001
  Li_i10  Li1+  0.846  0.046  0.806  0.001
  Li_i10  Li1+  0.446  0.446  0.806  0.001
  Li_i10  Li1+  0.446  0.046  0.406  0.001
  Li_i10  Li1+  0.046  0.046  0.006  0.001
  Li_i10  Li1+  0.646  0.046  0.806  0.001
  Li_i10  Li1+  0.046  0.846  0.206  0.001
  Li_i10  Li1+  0.246  0.246  0.406  0.001
  Li_i10  Li1+  0.446  0.446  0.006  0.001
  Li_i10  Li1+  0.846  0.846  0.006  0.001
  Li_i10  Li1+  0.846  0.446  0.406  0.001
  Li_i10  Li1+  0.646  0.646  0.206  0.001
  Li_i10  Li1+  0.446  0.646  0.806  0.001
  Li_i10  Li1+  0.646  0.446  0.006  0.001
  Li_i10  Li1+  0.446  0.846  0.806  0.001
  Li_i10  Li1+  0.446  0.246  0.206  0.001
  Li_i10  Li1+  0.246  0.046  0.206  0.001
  Li_i10  Li1+  0.046  0.646  0.406  0.001
  Li_i10  Li1+  0.846  0.246  0.006  0.001
  Li_i10  Li1+  0.646  0.846  0.606  0.001
  Li_i10  Li1+  0.246  0.446  0.406  0.001
  Li_i10  Li1+  0.246  0.246  0.006  0.001
  Li_i10  Li1+  0.246  0.846  0.806  0.001
  Li_i10  Li1+  0.246  0.046  0.606  0.001
  Li_i10  Li1+  0.846  0.846  0.206  0.001
  Li_i10  Li1+  0.046  0.446  0.406  0.001
  Li_i10  Li1+  0.846  0.446  0.606  0.001
  Li_i10  Li1+  0.046  0.246  0.806  0.001
  Li_i10  Li1+  0.646  0.246  0.006  0.001
  Li_i10  Li1+  0.446  0.646  0.006  0.001
  Li_i10  Li1+  0.646  0.646  0.406  0.001
  Li_i10  Li1+  0.246  0.646  0.006  0.001
  Li_i10  Li1+  0.246  0.846  0.206  0.001
  Li_i10  Li1+  0.646  0.446  0.206  0.001
  Li_i10  Li1+  0.046  0.646  0.206  0.001
  Li_i10  Li1+  0.846  0.246  0.206  0.001
  Li_i10  Li1+  0.446  0.046  0.606  0.001
  Li_i10  Li1+  0.646  0.846  0.806  0.001
  Li_i10  Li1+  0.646  0.046  0.006  0.001
  Li_i10  Li1+  0.846  0.846  0.406  0.001
  Li_i10  Li1+  0.446  0.846  0.006  0.001
  Li_i10  Li1+  0.246  0.646  0.606  0.001
  Li_i10  Li1+  0.846  0.446  0.806  0.001
  Li_i10  Li1+  0.446  0.446  0.206  0.001
  Li_i10  Li1+  0.046  0.446  0.606  0.001
  Li_i10  Li1+  0.446  0.246  0.406  0.001
  Li_i10  Li1+  0.046  0.646  0.006  0.001
  Li_i10  Li1+  0.246  0.446  0.006  0.001
  Li_i10  Li1+  0.046  0.846  0.606  0.001
  Li_i10  Li1+  0.646  0.646  0.606  0.001
  Li_i10  Li1+  0.646  0.246  0.206  0.001
  Li_i10  Li1+  0.046  0.846  0.006  0.001
  Li_i10  Li1+  0.846  0.246  0.406  0.001
  Li_i10  Li1+  0.046  0.446  0.806  0.001
  Li_i10  Li1+  0.846  0.846  0.606  0.001
  Li_i10  Li1+  0.646  0.446  0.406  0.001
  Li_i10  Li1+  0.846  0.046  0.006  0.001
  Li_i10  Li1+  0.046  0.246  0.006  0.001
  Li_i10  Li1+  0.846  0.646  0.006  0.001
  Li_i10  Li1+  0.446  0.646  0.206  0.001
  Li_i10  Li1+  0.446  0.046  0.006  0.001
  Li_i10  Li1+  0.046  0.046  0.806  0.001
  Li_i10  Li1+  0.646  0.046  0.206  0.001
  Li_i10  Li1+  0.246  0.246  0.606  0.001
  Li_i10  Li1+  0.446  0.846  0.206  0.001
  Li_i10  Li1+  0.246  0.446  0.606  0.001
  Li_i10  Li1+  0.246  0.046  0.006  0.001
  Li_i10  Li1+  0.046  0.046  0.206  0.001
  Li_i10  Li1+  0.646  0.646  0.806  0.001
  Li_i10  Li1+  0.846  0.846  0.806  0.001
  Li_i10  Li1+  0.846  0.246  0.606  0.001
  Li_i10  Li1+  0.446  0.446  0.406  0.001
  Li_i10  Li1+  0.446  0.046  0.806  0.001
  Li_i10  Li1+  0.646  0.246  0.406  0.001
  Li_i10  Li1+  0.846  0.646  0.206  0.001
  Li_i11  Li1+  0.700  0.100  0.882  0.001
  Li_i11  Li1+  0.700  0.900  0.282  0.001
  Li_i11  Li1+  0.700  0.700  0.082  0.001
  Li_i11  Li1+  0.500  0.700  0.082  0.001
  Li_i11  Li1+  0.300  0.700  0.882  0.001
  Li_i11  Li1+  0.500  0.500  0.282  0.001
  Li_i11  Li1+  0.300  0.900  0.482  0.001
  Li_i11  Li1+  0.900  0.700  0.482  0.001
  Li_i11  Li1+  0.100  0.500  0.282  0.001
  Li_i11  Li1+  0.100  0.300  0.882  0.001
  Li_i11  Li1+  0.300  0.300  0.882  0.001
  Li_i11  Li1+  0.900  0.100  0.682  0.001
  Li_i11  Li1+  0.300  0.100  0.682  0.001
  Li_i11  Li1+  0.900  0.500  0.082  0.001
  Li_i11  Li1+  0.100  0.900  0.682  0.001
  Li_i11  Li1+  0.300  0.300  0.482  0.001
  Li_i11  Li1+  0.700  0.500  0.082  0.001
  Li_i11  Li1+  0.500  0.900  0.082  0.001
  Li_i11  Li1+  0.500  0.100  0.882  0.001
  Li_i11  Li1+  0.300  0.500  0.882  0.001
  Li_i11  Li1+  0.700  0.900  0.482  0.001
  Li_i11  Li1+  0.300  0.300  0.082  0.001
  Li_i11  Li1+  0.700  0.700  0.282  0.001
  Li_i11  Li1+  0.900  0.700  0.682  0.001
  Li_i11  Li1+  0.100  0.300  0.282  0.001
  Li_i11  Li1+  0.700  0.300  0.082  0.001
  Li_i11  Li1+  0.700  0.100  0.082  0.001
  Li_i11  Li1+  0.100  0.100  0.482  0.001
  Li_i11  Li1+  0.100  0.700  0.882  0.001
  Li_i11  Li1+  0.900  0.100  0.882  0.001
  Li_i11  Li1+  0.900  0.500  0.282  0.001
  Li_i11  Li1+  0.500  0.700  0.282  0.001
  Li_i11  Li1+  0.500  0.300  0.682  0.001
  Li_i11  Li1+  0.100  0.500  0.482  0.001
  Li_i11  Li1+  0.500  0.500  0.482  0.001
  Li_i11  Li1+  0.500  0.100  0.282  0.001
  Li_i11  Li1+  0.300  0.700  0.482  0.001
  Li_i11  Li1+  0.700  0.500  0.282  0.001
  Li_i11  Li1+  0.100  0.300  0.682  0.001
  Li_i11  Li1+  0.900  0.700  0.882  0.001
  Li_i11  Li1+  0.700  0.900  0.682  0.001
  Li_i11  Li1+  0.100  0.300  0.482  0.001
  Li_i11  Li1+  0.300  0.900  0.682  0.001
  Li_i11  Li1+  0.700  0.700  0.482  0.001
  Li_i11  Li1+  0.500  0.900  0.282  0.001
  Li_i11  Li1+  0.300  0.900  0.082  0.001
  Li_i11  Li1+  0.300  0.500  0.482  0.001
  Li_i11  Li1+  0.900  0.500  0.482  0.001
  Li_i11  Li1+  0.900  0.300  0.082  0.001
  Li_i11  Li1+  0.700  0.300  0.282  0.001
  Li_i11  Li1+  0.300  0.100  0.082  0.001
  Li_i11  Li1+  0.700  0.100  0.282  0.001
  Li_i11  Li1+  0.100  0.700  0.682  0.001
  Li_i11  Li1+  0.500  0.300  0.082  0.001
  Li_i11  Li1+  0.100  0.900  0.482  0.001
  Li_i11  Li1+  0.900  0.900  0.082  0.001
  Li_i11  Li1+  0.100  0.500  0.682  0.001
  Li_i11  Li1+  0.500  0.700  0.482  0.001
  Li_i11  Li1+  0.100  0.100  0.882  0.001
  Li_i11  Li1+  0.700  0.900  0.882  0.001
  Li_i11  Li1+  0.700  0.500  0.482  0.001
  Li_i11  Li1+  0.300  0.500  0.082  0.001
  Li_i11  Li1+  0.500  0.300  0.882  0.001
  Li_i11  Li1+  0.700  0.700  0.682  0.001
  Li_i11  Li1+  0.900  0.500  0.682  0.001
  Li_i11  Li1+  0.500  0.500  0.682  0.001
  Li_i11  Li1+  0.900  0.300  0.282  0.001
  Li_i11  Li1+  0.300  0.100  0.482  0.001
  Li_i11  Li1+  0.300  0.700  0.082  0.001
  Li_i11  Li1+  0.100  0.700  0.482  0.001
  Li_i11  Li1+  0.500  0.900  0.482  0.001
  Li_i11  Li1+  0.900  0.900  0.282  0.001
  Li_i11  Li1+  0.700  0.300  0.482  0.001
  Li_i11  Li1+  0.500  0.100  0.482  0.001
  Li_i11  Li1+  0.100  0.500  0.882  0.001
  Li_i11  Li1+  0.700  0.100  0.482  0.001
  Li_i11  Li1+  0.300  0.300  0.682  0.001
  Li_i11  Li1+  0.300  0.100  0.882  0.001
  Li_i11  Li1+  0.900  0.100  0.082  0.001
  Li_i11  Li1+  0.300  0.700  0.682  0.001
  Li_i11  Li1+  0.300  0.900  0.882  0.001
  Li_i11  Li1+  0.900  0.500  0.882  0.001
  Li_i11  Li1+  0.700  0.500  0.682  0.001
  Li_i11  Li1+  0.300  0.300  0.282  0.001
  Li_i11  Li1+  0.900  0.300  0.482  0.001
  Li_i11  Li1+  0.700  0.700  0.882  0.001
  Li_i11  Li1+  0.300  0.900  0.282  0.001
  Li_i11  Li1+  0.900  0.900  0.482  0.001
  Li_i11  Li1+  0.500  0.700  0.682  0.001
  Li_i11  Li1+  0.500  0.300  0.282  0.001
  Li_i11  Li1+  0.100  0.700  0.282  0.001
  Li_i11  Li1+  0.100  0.700  0.082  0.001
  Li_i11  Li1+  0.100  0.900  0.282  0.001
  Li_i11  Li1+  0.500  0.500  0.882  0.001
  Li_i11  Li1+  0.700  0.300  0.682  0.001
  Li_i11  Li1+  0.500  0.500  0.082  0.001
  Li_i11  Li1+  0.500  0.900  0.682  0.001
  Li_i11  Li1+  0.900  0.100  0.282  0.001
  Li_i11  Li1+  0.900  0.700  0.082  0.001
  Li_i11  Li1+  0.300  0.500  0.682  0.001
  Li_i11  Li1+  0.700  0.100  0.682  0.001
  Li_i11  Li1+  0.100  0.900  0.882  0.001
  Li_i11  Li1+  0.900  0.300  0.682  0.001
  Li_i11  Li1+  0.900  0.900  0.682  0.001
  Li_i11  Li1+  0.100  0.500  0.082  0.001
  Li_i11  Li1+  0.700  0.500  0.882  0.001
  Li_i11  Li1+  0.700  0.900  0.082  0.001
  Li_i11  Li1+  0.100  0.300  0.082  0.001
  Li_i11  Li1+  0.100  0.100  0.682  0.001
  Li_i11  Li1+  0.500  0.100  0.682  0.001
  Li_i11  Li1+  0.100  0.100  0.282  0.001
  Li_i11  Li1+  0.100  0.100  0.082  0.001
  Li_i11  Li1+  0.300  0.700  0.282  0.001
  Li_i11  Li1+  0.500  0.700  0.882  0.001
  Li_i11  Li1+  0.300  0.500  0.282  0.001
  Li_i11  Li1+  0.900  0.700  0.282  0.001
  Li_i11  Li1+  0.300  0.100  0.282  0.001
  Li_i11  Li1+  0.900  0.100  0.482  0.001
  Li_i11  Li1+  0.700  0.300  0.882  0.001
  Li_i11  Li1+  0.900  0.900  0.882  0.001
  Li_i11  Li1+  0.500  0.100  0.082  0.001
  Li_i11  Li1+  0.900  0.300  0.882  0.001
  Li_i11  Li1+  0.500  0.300  0.482  0.001
  Li_i11  Li1+  0.100  0.900  0.082  0.001
  Li_i11  Li1+  0.500  0.900  0.882  0.001
  Li_i12  Li1+  0.900  0.700  0.518  0.001
  Li_i12  Li1+  0.300  0.500  0.918  0.001
  Li_i12  Li1+  0.500  0.100  0.718  0.001
  Li_i12  Li1+  0.300  0.100  0.518  0.001
  Li_i12  Li1+  0.500  0.900  0.518  0.001
  Li_i12  Li1+  0.500  0.500  0.118  0.001
  Li_i12  Li1+  0.700  0.700  0.518  0.001
  Li_i12  Li1+  0.300  0.900  0.518  0.001
  Li_i12  Li1+  0.900  0.100  0.918  0.001
  Li_i12  Li1+  0.500  0.100  0.118  0.001
  Li_i12  Li1+  0.100  0.100  0.918  0.001
  Li_i12  Li1+  0.700  0.900  0.718  0.001
  Li_i12  Li1+  0.500  0.700  0.718  0.001
  Li_i12  Li1+  0.500  0.500  0.918  0.001
  Li_i12  Li1+  0.100  0.500  0.118  0.001
  Li_i12  Li1+  0.700  0.100  0.518  0.001
  Li_i12  Li1+  0.900  0.500  0.318  0.001
  Li_i12  Li1+  0.900  0.700  0.718  0.001
  Li_i12  Li1+  0.700  0.500  0.518  0.001
  Li_i12  Li1+  0.100  0.900  0.918  0.001
  Li_i12  Li1+  0.100  0.300  0.318  0.001
  Li_i12  Li1+  0.700  0.300  0.518  0.001
  Li_i12  Li1+  0.300  0.500  0.518  0.001
  Li_i12  Li1+  0.300  0.100  0.918  0.001
  Li_i12  Li1+  0.100  0.900  0.118  0.001
  Li_i12  Li1+  0.500  0.300  0.518  0.001
  Li_i12  Li1+  0.300  0.700  0.518  0.001
  Li_i12  Li1+  0.900  0.300  0.118  0.001
  Li_i12  Li1+  0.700  0.700  0.718  0.001
  Li_i12  Li1+  0.100  0.500  0.718  0.001
  Li_i12  Li1+  0.300  0.500  0.118  0.001
  Li_i12  Li1+  0.700  0.900  0.918  0.001
  Li_i12  Li1+  0.500  0.900  0.718  0.001
  Li_i12  Li1+  0.300  0.300  0.318  0.001
  Li_i12  Li1+  0.900  0.700  0.918  0.001
  Li_i12  Li1+  0.900  0.500  0.518  0.001
  Li_i12  Li1+  0.300  0.300  0.718  0.001
  Li_i12  Li1+  0.100  0.100  0.318  0.001
  Li_i12  Li1+  0.500  0.500  0.318  0.001
  Li_i12  Li1+  0.500  0.100  0.918  0.001
  Li_i12  Li1+  0.700  0.500  0.718  0.001
  Li_i12  Li1+  0.500  0.700  0.918  0.001
  Li_i12  Li1+  0.700  0.100  0.718  0.001
  Li_i12  Li1+  0.300  0.900  0.118  0.001
  Li_i12  Li1+  0.700  0.300  0.718  0.001
  Li_i12  Li1+  0.500  0.700  0.118  0.001
  Li_i12  Li1+  0.900  0.300  0.318  0.001
  Li_i12  Li1+  0.100  0.300  0.118  0.001
  Li_i12  Li1+  0.100  0.700  0.918  0.001
  Li_i12  Li1+  0.700  0.700  0.918  0.001
  Li_i12  Li1+  0.500  0.100  0.318  0.001
  Li_i12  Li1+  0.900  0.900  0.118  0.001
  Li_i12  Li1+  0.900  0.100  0.118  0.001
  Li_i12  Li1+  0.900  0.500  0.718  0.001
  Li_i12  Li1+  0.300  0.900  0.718  0.001
  Li_i12  Li1+  0.100  0.500  0.918  0.001
  Li_i12  Li1+  0.300  0.700  0.118  0.001
  Li_i12  Li1+  0.300  0.100  0.318  0.001
  Li_i12  Li1+  0.100  0.900  0.718  0.001
  Li_i12  Li1+  0.500  0.900  0.918  0.001
  Li_i12  Li1+  0.500  0.300  0.718  0.001
  Li_i12  Li1+  0.100  0.300  0.918  0.001
  Li_i12  Li1+  0.700  0.500  0.918  0.001
  Li_i12  Li1+  0.100  0.700  0.718  0.001
  Li_i12  Li1+  0.100  0.700  0.118  0.001
  Li_i12  Li1+  0.900  0.300  0.518  0.001
  Li_i12  Li1+  0.100  0.700  0.518  0.001
  Li_i12  Li1+  0.700  0.100  0.918  0.001
  Li_i12  Li1+  0.900  0.900  0.318  0.001
  Li_i12  Li1+  0.700  0.300  0.918  0.001
  Li_i12  Li1+  0.300  0.500  0.718  0.001
  Li_i12  Li1+  0.900  0.500  0.918  0.001
  Li_i12  Li1+  0.700  0.900  0.118  0.001
  Li_i12  Li1+  0.900  0.100  0.318  0.001
  Li_i12  Li1+  0.500  0.900  0.118  0.001
  Li_i12  Li1+  0.500  0.500  0.518  0.001
  Li_i12  Li1+  0.300  0.700  0.718  0.001
  Li_i12  Li1+  0.500  0.700  0.318  0.001
  Li_i12  Li1+  0.300  0.100  0.718  0.001
  Li_i12  Li1+  0.500  0.300  0.118  0.001
  Li_i12  Li1+  0.100  0.700  0.318  0.001
  Li_i12  Li1+  0.100  0.300  0.518  0.001
  Li_i12  Li1+  0.100  0.900  0.518  0.001
  Li_i12  Li1+  0.300  0.900  0.318  0.001
  Li_i12  Li1+  0.900  0.300  0.718  0.001
  Li_i12  Li1+  0.900  0.900  0.518  0.001
  Li_i12  Li1+  0.700  0.700  0.118  0.001
  Li_i12  Li1+  0.700  0.100  0.118  0.001
  Li_i12  Li1+  0.500  0.100  0.518  0.001
  Li_i12  Li1+  0.900  0.700  0.118  0.001
  Li_i12  Li1+  0.300  0.500  0.318  0.001
  Li_i12  Li1+  0.300  0.900  0.918  0.001
  Li_i12  Li1+  0.300  0.300  0.118  0.001
  Li_i12  Li1+  0.900  0.100  0.518  0.001
  Li_i12  Li1+  0.700  0.900  0.318  0.001
  Li_i12  Li1+  0.700  0.500  0.118  0.001
  Li_i12  Li1+  0.700  0.300  0.118  0.001
  Li_i12  Li1+  0.500  0.300  0.918  0.001
  Li_i12  Li1+  0.100  0.500  0.318  0.001
  Li_i12  Li1+  0.300  0.300  0.918  0.001
  Li_i12  Li1+  0.500  0.900  0.318  0.001
  Li_i12  Li1+  0.300  0.300  0.518  0.001
  Li_i12  Li1+  0.900  0.900  0.718  0.001
  Li_i12  Li1+  0.300  0.700  0.318  0.001
  Li_i12  Li1+  0.900  0.300  0.918  0.001
  Li_i12  Li1+  0.500  0.500  0.718  0.001
  Li_i12  Li1+  0.500  0.700  0.518  0.001
  Li_i12  Li1+  0.900  0.700  0.318  0.001
  Li_i12  Li1+  0.300  0.100  0.118  0.001
  Li_i12  Li1+  0.700  0.700  0.318  0.001
  Li_i12  Li1+  0.100  0.300  0.718  0.001
  Li_i12  Li1+  0.100  0.100  0.518  0.001
  Li_i12  Li1+  0.100  0.100  0.118  0.001
  Li_i12  Li1+  0.900  0.100  0.718  0.001
  Li_i12  Li1+  0.700  0.100  0.318  0.001
  Li_i12  Li1+  0.700  0.900  0.518  0.001
  Li_i12  Li1+  0.500  0.300  0.318  0.001
  Li_i12  Li1+  0.100  0.100  0.718  0.001
  Li_i12  Li1+  0.700  0.500  0.318  0.001
  Li_i12  Li1+  0.900  0.900  0.918  0.001
  Li_i12  Li1+  0.100  0.900  0.318  0.001
  Li_i12  Li1+  0.700  0.300  0.318  0.001
  Li_i12  Li1+  0.300  0.700  0.918  0.001
  Li_i12  Li1+  0.900  0.500  0.118  0.001
  Li_i12  Li1+  0.100  0.500  0.518  0.001
  Li_i13  Li1+  0.300  0.300  0.754  0.001
  Li_i13  Li1+  0.500  0.900  0.154  0.001
  Li_i13  Li1+  0.300  0.500  0.154  0.001
  Li_i13  Li1+  0.900  0.500  0.354  0.001
  Li_i13  Li1+  0.700  0.900  0.954  0.001
  Li_i13  Li1+  0.100  0.300  0.754  0.001
  Li_i13  Li1+  0.500  0.300  0.954  0.001
  Li_i13  Li1+  0.900  0.300  0.154  0.001
  Li_i13  Li1+  0.100  0.900  0.554  0.001
  Li_i13  Li1+  0.100  0.500  0.754  0.001
  Li_i13  Li1+  0.300  0.900  0.554  0.001
  Li_i13  Li1+  0.900  0.700  0.754  0.001
  Li_i13  Li1+  0.100  0.100  0.354  0.001
  Li_i13  Li1+  0.700  0.100  0.954  0.001
  Li_i13  Li1+  0.100  0.100  0.154  0.001
  Li_i13  Li1+  0.500  0.300  0.354  0.001
  Li_i13  Li1+  0.700  0.700  0.954  0.001
  Li_i13  Li1+  0.300  0.700  0.554  0.001
  Li_i13  Li1+  0.500  0.100  0.154  0.001
  Li_i13  Li1+  0.500  0.500  0.754  0.001
  Li_i13  Li1+  0.700  0.300  0.954  0.001
  Li_i13  Li1+  0.700  0.500  0.954  0.001
  Li_i13  Li1+  0.900  0.500  0.554  0.001
  Li_i13  Li1+  0.500  0.100  0.754  0.001
  Li_i13  Li1+  0.300  0.100  0.754  0.001
  Li_i13  Li1+  0.900  0.100  0.154  0.001
  Li_i13  Li1+  0.700  0.100  0.154  0.001
  Li_i13  Li1+  0.900  0.300  0.354  0.001
  Li_i13  Li1+  0.100  0.500  0.354  0.001
  Li_i13  Li1+  0.900  0.700  0.954  0.001
  Li_i13  Li1+  0.300  0.100  0.154  0.001
  Li_i13  Li1+  0.500  0.700  0.554  0.001
  Li_i13  Li1+  0.500  0.900  0.354  0.001
  Li_i13  Li1+  0.100  0.900  0.354  0.001
  Li_i13  Li1+  0.100  0.500  0.954  0.001
  Li_i13  Li1+  0.100  0.300  0.354  0.001
  Li_i13  Li1+  0.300  0.700  0.154  0.001
  Li_i13  Li1+  0.300  0.300  0.154  0.001
  Li_i13  Li1+  0.700  0.900  0.154  0.001
  Li_i13  Li1+  0.700  0.300  0.154  0.001
  Li_i13  Li1+  0.500  0.500  0.154  0.001
  Li_i13  Li1+  0.900  0.500  0.754  0.001
  Li_i13  Li1+  0.300  0.900  0.154  0.001
  Li_i13  Li1+  0.100  0.300  0.154  0.001
  Li_i13  Li1+  0.100  0.900  0.154  0.001
  Li_i13  Li1+  0.700  0.700  0.154  0.001
  Li_i13  Li1+  0.900  0.100  0.354  0.001
  Li_i13  Li1+  0.900  0.900  0.154  0.001
  Li_i13  Li1+  0.900  0.300  0.554  0.001
  Li_i13  Li1+  0.700  0.500  0.154  0.001
  Li_i13  Li1+  0.100  0.700  0.154  0.001
  Li_i13  Li1+  0.300  0.500  0.754  0.001
  Li_i13  Li1+  0.300  0.300  0.554  0.001
  Li_i13  Li1+  0.500  0.300  0.554  0.001
  Li_i13  Li1+  0.700  0.100  0.354  0.001
  Li_i13  Li1+  0.500  0.500  0.954  0.001
  Li_i13  Li1+  0.300  0.900  0.754  0.001
  Li_i13  Li1+  0.100  0.100  0.754  0.001
  Li_i13  Li1+  0.300  0.500  0.354  0.001
  Li_i13  Li1+  0.500  0.900  0.554  0.001
  Li_i13  Li1+  0.900  0.500  0.954  0.001
  Li_i13  Li1+  0.700  0.900  0.354  0.001
  Li_i13  Li1+  0.500  0.700  0.754  0.001
  Li_i13  Li1+  0.500  0.100  0.954  0.001
  Li_i13  Li1+  0.500  0.100  0.354  0.001
  Li_i13  Li1+  0.900  0.900  0.354  0.001
  Li_i13  Li1+  0.700  0.300  0.354  0.001
  Li_i13  Li1+  0.300  0.300  0.954  0.001
  Li_i13  Li1+  0.900  0.300  0.754  0.001
  Li_i13  Li1+  0.900  0.100  0.554  0.001
  Li_i13  Li1+  0.100  0.900  0.954  0.001
  Li_i13  Li1+  0.700  0.700  0.354  0.001
  Li_i13  Li1+  0.300  0.700  0.754  0.001
  Li_i13  Li1+  0.700  0.500  0.354  0.001
  Li_i13  Li1+  0.300  0.100  0.554  0.001
  Li_i13  Li1+  0.100  0.700  0.954  0.001
  Li_i13  Li1+  0.500  0.500  0.354  0.001
  Li_i13  Li1+  0.100  0.700  0.354  0.001
  Li_i13  Li1+  0.100  0.700  0.754  0.001
  Li_i13  Li1+  0.900  0.700  0.154  0.001
  Li_i13  Li1+  0.100  0.700  0.554  0.001
  Li_i13  Li1+  0.700  0.100  0.554  0.001
  Li_i13  Li1+  0.100  0.100  0.554  0.001
  Li_i13  Li1+  0.900  0.900  0.554  0.001
  Li_i13  Li1+  0.700  0.900  0.554  0.001
  Li_i13  Li1+  0.100  0.500  0.154  0.001
  Li_i13  Li1+  0.300  0.900  0.354  0.001
  Li_i13  Li1+  0.500  0.700  0.154  0.001
  Li_i13  Li1+  0.900  0.300  0.954  0.001
  Li_i13  Li1+  0.300  0.700  0.354  0.001
  Li_i13  Li1+  0.900  0.100  0.754  0.001
  Li_i13  Li1+  0.500  0.900  0.754  0.001
  Li_i13  Li1+  0.500  0.300  0.754  0.001
  Li_i13  Li1+  0.700  0.300  0.554  0.001
  Li_i13  Li1+  0.700  0.700  0.554  0.001
  Li_i13  Li1+  0.500  0.700  0.954  0.001
  Li_i13  Li1+  0.300  0.100  0.954  0.001
  Li_i13  Li1+  0.700  0.500  0.554  0.001
  Li_i13  Li1+  0.900  0.700  0.354  0.001
  Li_i13  Li1+  0.100  0.900  0.754  0.001
  Li_i13  Li1+  0.100  0.500  0.554  0.001
  Li_i13  Li1+  0.900  0.900  0.754  0.001
  Li_i13  Li1+  0.300  0.900  0.954  0.001
  Li_i13  Li1+  0.500  0.300  0.154  0.001
  Li_i13  Li1+  0.100  0.300  0.554  0.001
  Li_i13  Li1+  0.500  0.100  0.554  0.001
  Li_i13  Li1+  0.700  0.900  0.754  0.001
  Li_i13  Li1+  0.300  0.100  0.354  0.001
  Li_i13  Li1+  0.900  0.500  0.154  0.001
  Li_i13  Li1+  0.300  0.500  0.954  0.001
  Li_i13  Li1+  0.700  0.100  0.754  0.001
  Li_i13  Li1+  0.900  0.100  0.954  0.001
  Li_i13  Li1+  0.500  0.500  0.554  0.001
  Li_i13  Li1+  0.300  0.300  0.354  0.001
  Li_i13  Li1+  0.100  0.100  0.954  0.001
  Li_i13  Li1+  0.100  0.300  0.954  0.001
  Li_i13  Li1+  0.300  0.700  0.954  0.001
  Li_i13  Li1+  0.900  0.700  0.554  0.001
  Li_i13  Li1+  0.700  0.700  0.754  0.001
  Li_i13  Li1+  0.900  0.900  0.954  0.001
  Li_i13  Li1+  0.300  0.500  0.554  0.001
  Li_i13  Li1+  0.700  0.300  0.754  0.001
  Li_i13  Li1+  0.500  0.900  0.954  0.001
  Li_i13  Li1+  0.700  0.500  0.754  0.001
  Li_i13  Li1+  0.500  0.700  0.354  0.001
  Li_i14  Li1+  0.529  0.208  0.994  0.001
  Li_i14  Li1+  0.529  0.808  0.794  0.001
  Li_i14  Li1+  0.008  0.129  0.394  0.001
  Li_i14  Li1+  0.808  0.529  0.594  0.001
  Li_i14  Li1+  0.408  0.729  0.394  0.001
  Li_i14  Li1+  0.208  0.929  0.794  0.001
  Li_i14  Li1+  0.129  0.408  0.794  0.001
  Li_i14  Li1+  0.208  0.529  0.194  0.001
  Li_i14  Li1+  0.808  0.129  0.394  0.001
  Li_i14  Li1+  0.929  0.408  0.594  0.001
  Li_i14  Li1+  0.329  0.608  0.794  0.001
  Li_i14  Li1+  0.329  0.008  0.794  0.001
  Li_i14  Li1+  0.608  0.729  0.394  0.001
  Li_i14  Li1+  0.529  0.608  0.394  0.001
  Li_i14  Li1+  0.208  0.529  0.994  0.001
  Li_i14  Li1+  0.929  0.008  0.394  0.001
  Li_i14  Li1+  0.608  0.329  0.594  0.001
  Li_i14  Li1+  0.329  0.808  0.794  0.001
  Li_i14  Li1+  0.008  0.329  0.194  0.001
  Li_i14  Li1+  0.729  0.608  0.394  0.001
  Li_i14  Li1+  0.008  0.529  0.594  0.001
  Li_i14  Li1+  0.008  0.329  0.594  0.001
  Li_i14  Li1+  0.408  0.929  0.994  0.001
  Li_i14  Li1+  0.808  0.529  0.794  0.001
  Li_i14  Li1+  0.729  0.208  0.594  0.001
  Li_i14  Li1+  0.008  0.929  0.794  0.001
  Li_i14  Li1+  0.329  0.408  0.194  0.001
  Li_i14  Li1+  0.408  0.529  0.194  0.001
  Li_i14  Li1+  0.408  0.129  0.994  0.001
  Li_i14  Li1+  0.929  0.408  0.794  0.001
  Li_i14  Li1+  0.329  0.408  0.994  0.001
  Li_i14  Li1+  0.808  0.129  0.594  0.001
  Li_i14  Li1+  0.529  0.808  0.994  0.001
  Li_i14  Li1+  0.008  0.729  0.194  0.001
  Li_i14  Li1+  0.129  0.208  0.394  0.001
  Li_i14  Li1+  0.008  0.129  0.994  0.001
  Li_i14  Li1+  0.608  0.729  0.594  0.001
  Li_i14  Li1+  0.929  0.008  0.594  0.001
  Li_i14  Li1+  0.408  0.729  0.594  0.001
  Li_i14  Li1+  0.529  0.408  0.194  0.001
  Li_i14  Li1+  0.008  0.129  0.594  0.001
  Li_i14  Li1+  0.529  0.008  0.994  0.001
  Li_i14  Li1+  0.608  0.329  0.794  0.001
  Li_i14  Li1+  0.808  0.529  0.994  0.001
  Li_i14  Li1+  0.729  0.608  0.594  0.001
  Li_i14  Li1+  0.008  0.529  0.394  0.001
  Li_i14  Li1+  0.208  0.729  0.994  0.001
  Li_i14  Li1+  0.529  0.608  0.594  0.001
  Li_i14  Li1+  0.208  0.329  0.594  0.001
  Li_i14  Li1+  0.929  0.408  0.994  0.001
  Li_i14  Li1+  0.208  0.929  0.994  0.001
  Li_i14  Li1+  0.729  0.208  0.794  0.001
  Li_i14  Li1+  0.129  0.808  0.794  0.001
  Li_i14  Li1+  0.808  0.129  0.794  0.001
  Li_i14  Li1+  0.608  0.129  0.194  0.001
  Li_i14  Li1+  0.129  0.408  0.594  0.001
  Li_i14  Li1+  0.208  0.129  0.394  0.001
  Li_i14  Li1+  0.008  0.929  0.394  0.001
  Li_i14  Li1+  0.329  0.608  0.994  0.001
  Li_i14  Li1+  0.929  0.008  0.794  0.001
  Li_i14  Li1+  0.329  0.808  0.994  0.001
  Li_i14  Li1+  0.608  0.729  0.794  0.001
  Li_i14  Li1+  0.729  0.008  0.194  0.001
  Li_i14  Li1+  0.808  0.729  0.194  0.001
  Li_i14  Li1+  0.208  0.129  0.994  0.001
  Li_i14  Li1+  0.408  0.529  0.394  0.001
  Li_i14  Li1+  0.329  0.208  0.594  0.001
  Li_i14  Li1+  0.008  0.729  0.594  0.001
  Li_i14  Li1+  0.729  0.608  0.794  0.001
  Li_i14  Li1+  0.929  0.608  0.194  0.001
  Li_i14  Li1+  0.408  0.329  0.194  0.001
  Li_i14  Li1+  0.608  0.329  0.994  0.001
  Li_i14  Li1+  0.408  0.729  0.794  0.001
  Li_i14  Li1+  0.208  0.729  0.194  0.001
  Li_i14  Li1+  0.208  0.529  0.394  0.001
  Li_i14  Li1+  0.808  0.129  0.994  0.001
  Li_i14  Li1+  0.529  0.408  0.394  0.001
  Li_i14  Li1+  0.129  0.608  0.194  0.001
  Li_i14  Li1+  0.729  0.208  0.994  0.001
  Li_i14  Li1+  0.008  0.729  0.994  0.001
  Li_i14  Li1+  0.529  0.608  0.794  0.001
  Li_i14  Li1+  0.929  0.008  0.994  0.001
  Li_i14  Li1+  0.008  0.329  0.794  0.001
  Li_i14  Li1+  0.808  0.729  0.394  0.001
  Li_i14  Li1+  0.608  0.129  0.394  0.001
  Li_i14  Li1+  0.529  0.208  0.194  0.001
  Li_i14  Li1+  0.608  0.729  0.994  0.001
  Li_i14  Li1+  0.329  0.008  0.394  0.001
  Li_i14  Li1+  0.329  0.608  0.194  0.001
  Li_i14  Li1+  0.929  0.608  0.394  0.001
  Li_i14  Li1+  0.329  0.008  0.994  0.001
  Li_i14  Li1+  0.329  0.408  0.394  0.001
  Li_i14  Li1+  0.729  0.008  0.394  0.001
  Li_i14  Li1+  0.729  0.608  0.994  0.001
  Li_i14  Li1+  0.129  0.008  0.594  0.001
  Li_i14  Li1+  0.408  0.129  0.194  0.001
  Li_i14  Li1+  0.208  0.929  0.194  0.001
  Li_i14  Li1+  0.808  0.329  0.194  0.001
  Li_i14  Li1+  0.608  0.529  0.194  0.001
  Li_i14  Li1+  0.129  0.808  0.394  0.001
  Li_i14  Li1+  0.008  0.529  0.194  0.001
  Li_i14  Li1+  0.408  0.529  0.594  0.001
  Li_i14  Li1+  0.008  0.329  0.994  0.001
  Li_i14  Li1+  0.808  0.729  0.594  0.001
  Li_i14  Li1+  0.929  0.208  0.194  0.001
  Li_i14  Li1+  0.408  0.729  0.994  0.001
  Li_i14  Li1+  0.729  0.408  0.194  0.001
  Li_i14  Li1+  0.129  0.608  0.594  0.001
  Li_i14  Li1+  0.529  0.008  0.194  0.001
  Li_i14  Li1+  0.929  0.608  0.594  0.001
  Li_i14  Li1+  0.129  0.608  0.994  0.001
  Li_i14  Li1+  0.608  0.929  0.194  0.001
  Li_i14  Li1+  0.408  0.329  0.394  0.001
  Li_i14  Li1+  0.529  0.408  0.594  0.001
  Li_i14  Li1+  0.608  0.129  0.594  0.001
  Li_i14  Li1+  0.529  0.608  0.994  0.001
  Li_i14  Li1+  0.329  0.808  0.194  0.001
  Li_i14  Li1+  0.729  0.808  0.194  0.001
  Li_i14  Li1+  0.129  0.008  0.794  0.001
  Li_i14  Li1+  0.808  0.329  0.394  0.001
  Li_i14  Li1+  0.208  0.329  0.794  0.001
  Li_i14  Li1+  0.008  0.929  0.994  0.001
  Li_i14  Li1+  0.729  0.008  0.594  0.001
  Li_i14  Li1+  0.808  0.729  0.794  0.001
  Li_i14  Li1+  0.008  0.529  0.994  0.001
  Li_i14  Li1+  0.608  0.529  0.394  0.001
  Li_i14  Li1+  0.929  0.208  0.394  0.001
  Li_i14  Li1+  0.529  0.208  0.394  0.001
  Li_i14  Li1+  0.129  0.408  0.394  0.001
  Li_i14  Li1+  0.929  0.608  0.794  0.001
  Li_i14  Li1+  0.208  0.729  0.394  0.001
  Li_i14  Li1+  0.129  0.208  0.594  0.001
  Li_i14  Li1+  0.129  0.008  0.194  0.001
  Li_i14  Li1+  0.729  0.408  0.394  0.001
  Li_i14  Li1+  0.208  0.529  0.594  0.001
  Li_i14  Li1+  0.608  0.929  0.394  0.001
  Li_i14  Li1+  0.329  0.208  0.794  0.001
  Li_i14  Li1+  0.129  0.208  0.194  0.001
  Li_i14  Li1+  0.408  0.929  0.194  0.001
  Li_i14  Li1+  0.408  0.529  0.794  0.001
  Li_i14  Li1+  0.408  0.129  0.394  0.001
  Li_i14  Li1+  0.808  0.329  0.594  0.001
  Li_i14  Li1+  0.729  0.808  0.394  0.001
  Li_i14  Li1+  0.808  0.729  0.994  0.001
  Li_i14  Li1+  0.329  0.608  0.394  0.001
  Li_i14  Li1+  0.608  0.129  0.794  0.001
  Li_i14  Li1+  0.208  0.329  0.194  0.001
  Li_i14  Li1+  0.208  0.929  0.394  0.001
  Li_i14  Li1+  0.929  0.208  0.594  0.001
  Li_i14  Li1+  0.929  0.608  0.994  0.001
  Li_i14  Li1+  0.529  0.808  0.194  0.001
  Li_i14  Li1+  0.208  0.129  0.594  0.001
  Li_i14  Li1+  0.529  0.408  0.794  0.001
  Li_i14  Li1+  0.608  0.529  0.594  0.001
  Li_i14  Li1+  0.729  0.008  0.794  0.001
  Li_i14  Li1+  0.129  0.808  0.994  0.001
  Li_i14  Li1+  0.408  0.329  0.594  0.001
  Li_i14  Li1+  0.529  0.008  0.394  0.001
  Li_i14  Li1+  0.329  0.408  0.594  0.001
  Li_i14  Li1+  0.608  0.929  0.594  0.001
  Li_i14  Li1+  0.729  0.408  0.594  0.001
  Li_i14  Li1+  0.129  0.408  0.194  0.001
  Li_i14  Li1+  0.129  0.408  0.994  0.001
  Li_i14  Li1+  0.808  0.929  0.194  0.001
  Li_i14  Li1+  0.808  0.329  0.794  0.001
  Li_i14  Li1+  0.329  0.808  0.394  0.001
  Li_i14  Li1+  0.529  0.208  0.594  0.001
  Li_i14  Li1+  0.729  0.808  0.594  0.001
  Li_i14  Li1+  0.129  0.208  0.794  0.001
  Li_i14  Li1+  0.929  0.808  0.194  0.001
  Li_i14  Li1+  0.329  0.208  0.194  0.001
  Li_i14  Li1+  0.929  0.208  0.794  0.001
  Li_i14  Li1+  0.008  0.929  0.594  0.001
  Li_i14  Li1+  0.408  0.929  0.394  0.001
  Li_i14  Li1+  0.329  0.008  0.594  0.001
  Li_i14  Li1+  0.608  0.129  0.994  0.001
  Li_i14  Li1+  0.008  0.729  0.394  0.001
  Li_i14  Li1+  0.408  0.529  0.994  0.001
  Li_i14  Li1+  0.129  0.208  0.994  0.001
  Li_i14  Li1+  0.608  0.529  0.794  0.001
  Li_i14  Li1+  0.008  0.129  0.794  0.001
  Li_i14  Li1+  0.529  0.808  0.394  0.001
  Li_i14  Li1+  0.729  0.008  0.994  0.001
  Li_i14  Li1+  0.808  0.929  0.394  0.001
  Li_i14  Li1+  0.608  0.929  0.794  0.001
  Li_i14  Li1+  0.208  0.729  0.594  0.001
  Li_i14  Li1+  0.808  0.329  0.994  0.001
  Li_i14  Li1+  0.208  0.329  0.994  0.001
  Li_i14  Li1+  0.729  0.408  0.794  0.001
  Li_i14  Li1+  0.929  0.808  0.394  0.001
  Li_i14  Li1+  0.408  0.129  0.594  0.001
  Li_i14  Li1+  0.529  0.408  0.994  0.001
  Li_i14  Li1+  0.729  0.808  0.794  0.001
  Li_i14  Li1+  0.929  0.208  0.994  0.001
  Li_i14  Li1+  0.008  0.529  0.794  0.001
  Li_i14  Li1+  0.008  0.929  0.194  0.001
  Li_i14  Li1+  0.129  0.808  0.594  0.001
  Li_i14  Li1+  0.408  0.329  0.794  0.001
  Li_i14  Li1+  0.208  0.529  0.794  0.001
  Li_i14  Li1+  0.208  0.929  0.594  0.001
  Li_i14  Li1+  0.529  0.008  0.594  0.001
  Li_i14  Li1+  0.329  0.608  0.594  0.001
  Li_i14  Li1+  0.008  0.729  0.794  0.001
  Li_i14  Li1+  0.808  0.929  0.594  0.001
  Li_i14  Li1+  0.608  0.329  0.194  0.001
  Li_i14  Li1+  0.408  0.929  0.594  0.001
  Li_i14  Li1+  0.608  0.529  0.994  0.001
  Li_i14  Li1+  0.529  0.208  0.794  0.001
  Li_i14  Li1+  0.808  0.529  0.194  0.001
  Li_i14  Li1+  0.929  0.808  0.594  0.001
  Li_i14  Li1+  0.608  0.929  0.994  0.001
  Li_i14  Li1+  0.008  0.329  0.394  0.001
  Li_i14  Li1+  0.329  0.208  0.994  0.001
  Li_i14  Li1+  0.129  0.008  0.994  0.001
  Li_i14  Li1+  0.729  0.208  0.194  0.001
  Li_i14  Li1+  0.929  0.408  0.194  0.001
  Li_i14  Li1+  0.729  0.408  0.994  0.001
  Li_i14  Li1+  0.729  0.808  0.994  0.001
  Li_i14  Li1+  0.408  0.729  0.194  0.001
  Li_i14  Li1+  0.529  0.808  0.594  0.001
  Li_i14  Li1+  0.329  0.808  0.594  0.001
  Li_i14  Li1+  0.208  0.129  0.194  0.001
  Li_i14  Li1+  0.329  0.408  0.794  0.001
  Li_i14  Li1+  0.808  0.929  0.794  0.001
  Li_i14  Li1+  0.129  0.608  0.394  0.001
  Li_i14  Li1+  0.208  0.329  0.394  0.001
  Li_i14  Li1+  0.529  0.608  0.194  0.001
  Li_i14  Li1+  0.008  0.129  0.194  0.001
  Li_i14  Li1+  0.129  0.808  0.194  0.001
  Li_i14  Li1+  0.929  0.808  0.794  0.001
  Li_i14  Li1+  0.208  0.129  0.794  0.001
  Li_i14  Li1+  0.808  0.529  0.394  0.001
  Li_i14  Li1+  0.408  0.129  0.794  0.001
  Li_i14  Li1+  0.129  0.008  0.394  0.001
  Li_i14  Li1+  0.808  0.129  0.194  0.001
  Li_i14  Li1+  0.608  0.729  0.194  0.001
  Li_i14  Li1+  0.608  0.329  0.394  0.001
  Li_i14  Li1+  0.929  0.408  0.394  0.001
  Li_i14  Li1+  0.408  0.329  0.994  0.001
  Li_i14  Li1+  0.129  0.608  0.794  0.001
  Li_i14  Li1+  0.408  0.929  0.794  0.001
  Li_i14  Li1+  0.929  0.008  0.194  0.001
  Li_i14  Li1+  0.208  0.729  0.794  0.001
  Li_i14  Li1+  0.808  0.929  0.994  0.001
  Li_i14  Li1+  0.729  0.608  0.194  0.001
  Li_i14  Li1+  0.329  0.208  0.394  0.001
  Li_i14  Li1+  0.729  0.208  0.394  0.001
  Li_i14  Li1+  0.329  0.008  0.194  0.001
  Li_i14  Li1+  0.529  0.008  0.794  0.001
  Li_i14  Li1+  0.929  0.808  0.994  0.001
  Li_i15  Li1+  0.500  0.700  0.973  0.001
  Li_i15  Li1+  0.700  0.300  0.973  0.001
  Li_i15  Li1+  0.700  0.300  0.173  0.001
  Li_i15  Li1+  0.500  0.100  0.973  0.001
  Li_i15  Li1+  0.100  0.900  0.173  0.001
  Li_i15  Li1+  0.300  0.900  0.973  0.001
  Li_i15  Li1+  0.900  0.500  0.773  0.001
  Li_i15  Li1+  0.300  0.300  0.773  0.001
  Li_i15  Li1+  0.100  0.300  0.773  0.001
  Li_i15  Li1+  0.700  0.700  0.773  0.001
  Li_i15  Li1+  0.100  0.300  0.173  0.001
  Li_i15  Li1+  0.500  0.700  0.373  0.001
  Li_i15  Li1+  0.500  0.300  0.573  0.001
  Li_i15  Li1+  0.900  0.700  0.973  0.001
  Li_i15  Li1+  0.300  0.300  0.173  0.001
  Li_i15  Li1+  0.100  0.100  0.573  0.001
  Li_i15  Li1+  0.900  0.300  0.773  0.001
  Li_i15  Li1+  0.500  0.900  0.773  0.001
  Li_i15  Li1+  0.700  0.900  0.773  0.001
  Li_i15  Li1+  0.500  0.500  0.773  0.001
  Li_i15  Li1+  0.900  0.100  0.773  0.001
  Li_i15  Li1+  0.500  0.500  0.173  0.001
  Li_i15  Li1+  0.100  0.500  0.373  0.001
  Li_i15  Li1+  0.700  0.500  0.973  0.001
  Li_i15  Li1+  0.100  0.300  0.973  0.001
  Li_i15  Li1+  0.300  0.900  0.573  0.001
  Li_i15  Li1+  0.300  0.500  0.173  0.001
  Li_i15  Li1+  0.700  0.100  0.573  0.001
  Li_i15  Li1+  0.900  0.500  0.973  0.001
  Li_i15  Li1+  0.300  0.100  0.373  0.001
  Li_i15  Li1+  0.700  0.500  0.173  0.001
  Li_i15  Li1+  0.500  0.100  0.573  0.001
  Li_i15  Li1+  0.700  0.300  0.373  0.001
  Li_i15  Li1+  0.100  0.700  0.173  0.001
  Li_i15  Li1+  0.900  0.900  0.173  0.001
  Li_i15  Li1+  0.100  0.500  0.173  0.001
  Li_i15  Li1+  0.700  0.700  0.973  0.001
  Li_i15  Li1+  0.500  0.900  0.173  0.001
  Li_i15  Li1+  0.100  0.100  0.173  0.001
  Li_i15  Li1+  0.900  0.300  0.973  0.001
  Li_i15  Li1+  0.300  0.900  0.173  0.001
  Li_i15  Li1+  0.300  0.500  0.573  0.001
  Li_i15  Li1+  0.100  0.500  0.773  0.001
  Li_i15  Li1+  0.700  0.900  0.973  0.001
  Li_i15  Li1+  0.900  0.100  0.973  0.001
  Li_i15  Li1+  0.100  0.300  0.573  0.001
  Li_i15  Li1+  0.500  0.300  0.173  0.001
  Li_i15  Li1+  0.300  0.700  0.773  0.001
  Li_i15  Li1+  0.500  0.700  0.573  0.001
  Li_i15  Li1+  0.300  0.500  0.973  0.001
  Li_i15  Li1+  0.900  0.700  0.173  0.001
  Li_i15  Li1+  0.700  0.700  0.173  0.001
  Li_i15  Li1+  0.500  0.900  0.973  0.001
  Li_i15  Li1+  0.300  0.700  0.373  0.001
  Li_i15  Li1+  0.500  0.100  0.173  0.001
  Li_i15  Li1+  0.900  0.900  0.373  0.001
  Li_i15  Li1+  0.500  0.300  0.773  0.001
  Li_i15  Li1+  0.500  0.500  0.973  0.001
  Li_i15  Li1+  0.300  0.300  0.573  0.001
  Li_i15  Li1+  0.700  0.500  0.373  0.001
  Li_i15  Li1+  0.700  0.100  0.773  0.001
  Li_i15  Li1+  0.500  0.500  0.373  0.001
  Li_i15  Li1+  0.900  0.500  0.173  0.001
  Li_i15  Li1+  0.700  0.900  0.173  0.001
  Li_i15  Li1+  0.700  0.300  0.573  0.001
  Li_i15  Li1+  0.300  0.100  0.973  0.001
  Li_i15  Li1+  0.300  0.100  0.173  0.001
  Li_i15  Li1+  0.100  0.700  0.373  0.001
  Li_i15  Li1+  0.900  0.300  0.173  0.001
  Li_i15  Li1+  0.900  0.100  0.173  0.001
  Li_i15  Li1+  0.100  0.300  0.373  0.001
  Li_i15  Li1+  0.100  0.100  0.373  0.001
  Li_i15  Li1+  0.900  0.700  0.373  0.001
  Li_i15  Li1+  0.500  0.900  0.373  0.001
  Li_i15  Li1+  0.100  0.100  0.773  0.001
  Li_i15  Li1+  0.100  0.900  0.973  0.001
  Li_i15  Li1+  0.900  0.900  0.573  0.001
  Li_i15  Li1+  0.300  0.900  0.773  0.001
  Li_i15  Li1+  0.500  0.100  0.773  0.001
  Li_i15  Li1+  0.700  0.700  0.373  0.001
  Li_i15  Li1+  0.300  0.300  0.973  0.001
  Li_i15  Li1+  0.100  0.700  0.573  0.001
  Li_i15  Li1+  0.100  0.100  0.973  0.001
  Li_i15  Li1+  0.300  0.100  0.773  0.001
  Li_i15  Li1+  0.700  0.100  0.173  0.001
  Li_i15  Li1+  0.900  0.500  0.373  0.001
  Li_i15  Li1+  0.500  0.700  0.773  0.001
  Li_i15  Li1+  0.100  0.500  0.573  0.001
  Li_i15  Li1+  0.700  0.500  0.573  0.001
  Li_i15  Li1+  0.700  0.900  0.373  0.001
  Li_i15  Li1+  0.300  0.300  0.373  0.001
  Li_i15  Li1+  0.500  0.300  0.373  0.001
  Li_i15  Li1+  0.900  0.300  0.373  0.001
  Li_i15  Li1+  0.700  0.100  0.973  0.001
  Li_i15  Li1+  0.900  0.700  0.573  0.001
  Li_i15  Li1+  0.900  0.100  0.373  0.001
  Li_i15  Li1+  0.700  0.300  0.773  0.001
  Li_i15  Li1+  0.900  0.900  0.773  0.001
  Li_i15  Li1+  0.300  0.900  0.373  0.001
  Li_i15  Li1+  0.300  0.500  0.373  0.001
  Li_i15  Li1+  0.500  0.700  0.173  0.001
  Li_i15  Li1+  0.100  0.900  0.773  0.001
  Li_i15  Li1+  0.500  0.300  0.973  0.001
  Li_i15  Li1+  0.500  0.500  0.573  0.001
  Li_i15  Li1+  0.100  0.700  0.773  0.001
  Li_i15  Li1+  0.100  0.500  0.973  0.001
  Li_i15  Li1+  0.700  0.700  0.573  0.001
  Li_i15  Li1+  0.500  0.900  0.573  0.001
  Li_i15  Li1+  0.900  0.500  0.573  0.001
  Li_i15  Li1+  0.500  0.100  0.373  0.001
  Li_i15  Li1+  0.300  0.700  0.973  0.001
  Li_i15  Li1+  0.300  0.500  0.773  0.001
  Li_i15  Li1+  0.100  0.900  0.573  0.001
  Li_i15  Li1+  0.300  0.700  0.573  0.001
  Li_i15  Li1+  0.300  0.700  0.173  0.001
  Li_i15  Li1+  0.700  0.900  0.573  0.001
  Li_i15  Li1+  0.900  0.700  0.773  0.001
  Li_i15  Li1+  0.900  0.300  0.573  0.001
  Li_i15  Li1+  0.900  0.900  0.973  0.001
  Li_i15  Li1+  0.100  0.700  0.973  0.001
  Li_i15  Li1+  0.700  0.500  0.773  0.001
  Li_i15  Li1+  0.900  0.100  0.573  0.001
  Li_i15  Li1+  0.700  0.100  0.373  0.001
  Li_i15  Li1+  0.100  0.900  0.373  0.001
  Li_i15  Li1+  0.300  0.100  0.573  0.001
  Li_i16  Li1+  0.300  0.100  0.900  0.001
  Li_i16  Li1+  0.100  0.900  0.900  0.001
  Li_i16  Li1+  0.500  0.900  0.300  0.001
  Li_i16  Li1+  0.700  0.700  0.900  0.001
  Li_i16  Li1+  0.700  0.100  0.700  0.001
  Li_i16  Li1+  0.100  0.700  0.900  0.001
  Li_i16  Li1+  0.300  0.300  0.500  0.001
  Li_i16  Li1+  0.500  0.300  0.900  0.001
  Li_i16  Li1+  0.900  0.700  0.900  0.001
  Li_i16  Li1+  0.100  0.100  0.700  0.001
  Li_i16  Li1+  0.100  0.900  0.700  0.001
  Li_i16  Li1+  0.700  0.700  0.100  0.001
  Li_i16  Li1+  0.700  0.300  0.500  0.001
  Li_i16  Li1+  0.500  0.700  0.700  0.001
  Li_i16  Li1+  0.700  0.500  0.300  0.001
  Li_i16  Li1+  0.700  0.900  0.900  0.001
  Li_i16  Li1+  0.300  0.900  0.900  0.001
  Li_i16  Li1+  0.500  0.500  0.500  0.001
  Li_i16  Li1+  0.900  0.500  0.900  0.001
  Li_i16  Li1+  0.500  0.700  0.100  0.001
  Li_i16  Li1+  0.300  0.500  0.500  0.001
  Li_i16  Li1+  0.100  0.900  0.100  0.001
  Li_i16  Li1+  0.900  0.100  0.900  0.001
  Li_i16  Li1+  0.900  0.300  0.900  0.001
  Li_i16  Li1+  0.100  0.900  0.500  0.001
  Li_i16  Li1+  0.700  0.100  0.100  0.001
  Li_i16  Li1+  0.500  0.100  0.900  0.001
  Li_i16  Li1+  0.100  0.900  0.300  0.001
  Li_i16  Li1+  0.300  0.100  0.700  0.001
  Li_i16  Li1+  0.300  0.900  0.500  0.001
  Li_i16  Li1+  0.900  0.900  0.100  0.001
  Li_i16  Li1+  0.700  0.900  0.100  0.001
  Li_i16  Li1+  0.300  0.500  0.900  0.001
  Li_i16  Li1+  0.100  0.700  0.100  0.001
  Li_i16  Li1+  0.100  0.500  0.700  0.001
  Li_i16  Li1+  0.300  0.900  0.100  0.001
  Li_i16  Li1+  0.700  0.100  0.900  0.001
  Li_i16  Li1+  0.300  0.700  0.300  0.001
  Li_i16  Li1+  0.500  0.900  0.500  0.001
  Li_i16  Li1+  0.700  0.700  0.300  0.001
  Li_i16  Li1+  0.500  0.300  0.500  0.001
  Li_i16  Li1+  0.900  0.700  0.100  0.001
  Li_i16  Li1+  0.900  0.100  0.100  0.001
  Li_i16  Li1+  0.300  0.700  0.700  0.001
  Li_i16  Li1+  0.700  0.300  0.700  0.001
  Li_i16  Li1+  0.700  0.500  0.500  0.001
  Li_i16  Li1+  0.100  0.300  0.700  0.001
  Li_i16  Li1+  0.900  0.500  0.100  0.001
  Li_i16  Li1+  0.900  0.300  0.100  0.001
  Li_i16  Li1+  0.500  0.100  0.500  0.001
  Li_i16  Li1+  0.300  0.300  0.900  0.001
  Li_i16  Li1+  0.100  0.100  0.300  0.001
  Li_i16  Li1+  0.900  0.900  0.300  0.001
  Li_i16  Li1+  0.500  0.700  0.900  0.001
  Li_i16  Li1+  0.500  0.500  0.100  0.001
  Li_i16  Li1+  0.300  0.300  0.300  0.001
  Li_i16  Li1+  0.100  0.300  0.300  0.001
  Li_i16  Li1+  0.500  0.700  0.300  0.001
  Li_i16  Li1+  0.700  0.900  0.300  0.001
  Li_i16  Li1+  0.700  0.100  0.300  0.001
  Li_i16  Li1+  0.500  0.500  0.700  0.001
  Li_i16  Li1+  0.100  0.300  0.500  0.001
  Li_i16  Li1+  0.300  0.100  0.500  0.001
  Li_i16  Li1+  0.100  0.700  0.300  0.001
  Li_i16  Li1+  0.900  0.700  0.300  0.001
  Li_i16  Li1+  0.100  0.500  0.500  0.001
  Li_i16  Li1+  0.500  0.100  0.100  0.001
  Li_i16  Li1+  0.300  0.500  0.300  0.001
  Li_i16  Li1+  0.900  0.100  0.300  0.001
  Li_i16  Li1+  0.700  0.700  0.500  0.001
  Li_i16  Li1+  0.700  0.300  0.100  0.001
  Li_i16  Li1+  0.900  0.500  0.300  0.001
  Li_i16  Li1+  0.500  0.300  0.100  0.001
  Li_i16  Li1+  0.900  0.300  0.300  0.001
  Li_i16  Li1+  0.900  0.900  0.500  0.001
  Li_i16  Li1+  0.100  0.300  0.900  0.001
  Li_i16  Li1+  0.100  0.100  0.900  0.001
  Li_i16  Li1+  0.700  0.500  0.700  0.001
  Li_i16  Li1+  0.700  0.300  0.900  0.001
  Li_i16  Li1+  0.500  0.900  0.700  0.001
  Li_i16  Li1+  0.100  0.500  0.900  0.001
  Li_i16  Li1+  0.300  0.100  0.300  0.001
  Li_i16  Li1+  0.300  0.300  0.100  0.001
  Li_i16  Li1+  0.300  0.900  0.700  0.001
  Li_i16  Li1+  0.300  0.500  0.700  0.001
  Li_i16  Li1+  0.700  0.900  0.500  0.001
  Li_i16  Li1+  0.500  0.300  0.700  0.001
  Li_i16  Li1+  0.900  0.700  0.500  0.001
  Li_i16  Li1+  0.300  0.300  0.700  0.001
  Li_i16  Li1+  0.500  0.900  0.100  0.001
  Li_i16  Li1+  0.100  0.700  0.500  0.001
  Li_i16  Li1+  0.100  0.500  0.300  0.001
  Li_i16  Li1+  0.700  0.100  0.500  0.001
  Li_i16  Li1+  0.300  0.900  0.300  0.001
  Li_i16  Li1+  0.900  0.100  0.500  0.001
  Li_i16  Li1+  0.900  0.500  0.500  0.001
  Li_i16  Li1+  0.900  0.900  0.700  0.001
  Li_i16  Li1+  0.500  0.500  0.300  0.001
  Li_i16  Li1+  0.500  0.700  0.500  0.001
  Li_i16  Li1+  0.900  0.300  0.500  0.001
  Li_i16  Li1+  0.700  0.700  0.700  0.001
  Li_i16  Li1+  0.500  0.100  0.700  0.001
  Li_i16  Li1+  0.500  0.500  0.900  0.001
  Li_i16  Li1+  0.300  0.700  0.100  0.001
  Li_i16  Li1+  0.700  0.300  0.300  0.001
  Li_i16  Li1+  0.100  0.500  0.100  0.001
  Li_i16  Li1+  0.700  0.500  0.900  0.001
  Li_i16  Li1+  0.300  0.700  0.900  0.001
  Li_i16  Li1+  0.700  0.500  0.100  0.001
  Li_i16  Li1+  0.300  0.700  0.500  0.001
  Li_i16  Li1+  0.900  0.700  0.700  0.001
  Li_i16  Li1+  0.100  0.100  0.100  0.001
  Li_i16  Li1+  0.300  0.100  0.100  0.001
  Li_i16  Li1+  0.700  0.900  0.700  0.001
  Li_i16  Li1+  0.500  0.900  0.900  0.001
  Li_i16  Li1+  0.100  0.700  0.700  0.001
  Li_i16  Li1+  0.100  0.300  0.100  0.001
  Li_i16  Li1+  0.100  0.100  0.500  0.001
  Li_i16  Li1+  0.900  0.900  0.900  0.001
  Li_i16  Li1+  0.500  0.300  0.300  0.001
  Li_i16  Li1+  0.900  0.500  0.700  0.001
  Li_i16  Li1+  0.500  0.100  0.300  0.001
  Li_i16  Li1+  0.900  0.100  0.700  0.001
  Li_i16  Li1+  0.300  0.500  0.100  0.001
  Li_i16  Li1+  0.900  0.300  0.700  0.001
  Li_i17  Li1+  0.867  0.067  0.800  0.001
  Li_i17  Li1+  0.667  0.467  0.400  0.001
  Li_i17  Li1+  0.667  0.667  0.200  0.001
  Li_i17  Li1+  0.867  0.667  0.800  0.001
  Li_i17  Li1+  0.267  0.267  0.200  0.001
  Li_i17  Li1+  0.067  0.667  0.000  0.001
  Li_i17  Li1+  0.267  0.267  0.800  0.001
  Li_i17  Li1+  0.867  0.267  0.800  0.001
  Li_i17  Li1+  0.867  0.467  0.800  0.001
  Li_i17  Li1+  0.067  0.067  0.400  0.001
  Li_i17  Li1+  0.467  0.467  0.200  0.001
  Li_i17  Li1+  0.467  0.067  0.200  0.001
  Li_i17  Li1+  0.467  0.867  0.600  0.001
  Li_i17  Li1+  0.267  0.467  0.800  0.001
  Li_i17  Li1+  0.067  0.067  0.800  0.001
  Li_i17  Li1+  0.267  0.067  0.200  0.001
  Li_i17  Li1+  0.867  0.067  0.000  0.001
  Li_i17  Li1+  0.667  0.267  0.000  0.001
  Li_i17  Li1+  0.467  0.467  0.800  0.001
  Li_i17  Li1+  0.467  0.867  0.000  0.001
  Li_i17  Li1+  0.067  0.667  0.800  0.001
  Li_i17  Li1+  0.467  0.667  0.400  0.001
  Li_i17  Li1+  0.467  0.267  0.200  0.001
  Li_i17  Li1+  0.067  0.467  0.400  0.001
  Li_i17  Li1+  0.267  0.867  0.800  0.001
  Li_i17  Li1+  0.667  0.867  0.200  0.001
  Li_i17  Li1+  0.867  0.867  0.000  0.001
  Li_i17  Li1+  0.867  0.267  0.000  0.001
  Li_i17  Li1+  0.667  0.267  0.800  0.001
  Li_i17  Li1+  0.267  0.667  0.200  0.001
  Li_i17  Li1+  0.067  0.467  0.000  0.001
  Li_i17  Li1+  0.267  0.067  0.000  0.001
  Li_i17  Li1+  0.867  0.667  0.000  0.001
  Li_i17  Li1+  0.867  0.467  0.000  0.001
  Li_i17  Li1+  0.667  0.667  0.400  0.001
  Li_i17  Li1+  0.667  0.467  0.600  0.001
  Li_i17  Li1+  0.267  0.867  0.400  0.001
  Li_i17  Li1+  0.667  0.067  0.400  0.001
  Li_i17  Li1+  0.267  0.667  0.600  0.001
  Li_i17  Li1+  0.267  0.867  0.000  0.001
  Li_i17  Li1+  0.267  0.267  0.000  0.001
  Li_i17  Li1+  0.467  0.267  0.800  0.001
  Li_i17  Li1+  0.067  0.867  0.000  0.001
  Li_i17  Li1+  0.867  0.067  0.200  0.001
  Li_i17  Li1+  0.467  0.067  0.800  0.001
  Li_i17  Li1+  0.267  0.467  0.200  0.001
  Li_i17  Li1+  0.067  0.467  0.200  0.001
  Li_i17  Li1+  0.467  0.867  0.800  0.001
  Li_i17  Li1+  0.067  0.867  0.800  0.001
  Li_i17  Li1+  0.867  0.867  0.200  0.001
  Li_i17  Li1+  0.667  0.267  0.200  0.001
  Li_i17  Li1+  0.267  0.267  0.600  0.001
  Li_i17  Li1+  0.467  0.467  0.400  0.001
  Li_i17  Li1+  0.867  0.267  0.200  0.001
  Li_i17  Li1+  0.067  0.867  0.200  0.001
  Li_i17  Li1+  0.667  0.867  0.400  0.001
  Li_i17  Li1+  0.867  0.667  0.200  0.001
  Li_i17  Li1+  0.067  0.867  0.600  0.001
  Li_i17  Li1+  0.867  0.467  0.200  0.001
  Li_i17  Li1+  0.467  0.867  0.200  0.001
  Li_i17  Li1+  0.067  0.867  0.400  0.001
  Li_i17  Li1+  0.667  0.467  0.000  0.001
  Li_i17  Li1+  0.467  0.667  0.000  0.001
  Li_i17  Li1+  0.667  0.667  0.600  0.001
  Li_i17  Li1+  0.467  0.667  0.600  0.001
  Li_i17  Li1+  0.667  0.467  0.800  0.001
  Li_i17  Li1+  0.067  0.067  0.000  0.001
  Li_i17  Li1+  0.467  0.067  0.400  0.001
  Li_i17  Li1+  0.267  0.467  0.600  0.001
  Li_i17  Li1+  0.267  0.067  0.800  0.001
  Li_i17  Li1+  0.867  0.067  0.400  0.001
  Li_i17  Li1+  0.667  0.067  0.600  0.001
  Li_i17  Li1+  0.867  0.867  0.400  0.001
  Li_i17  Li1+  0.467  0.267  0.400  0.001
  Li_i17  Li1+  0.067  0.667  0.200  0.001
  Li_i17  Li1+  0.067  0.267  0.200  0.001
  Li_i17  Li1+  0.067  0.467  0.800  0.001
  Li_i17  Li1+  0.067  0.267  0.600  0.001
  Li_i17  Li1+  0.467  0.067  0.000  0.001
  Li_i17  Li1+  0.867  0.267  0.400  0.001
  Li_i17  Li1+  0.867  0.667  0.400  0.001
  Li_i17  Li1+  0.267  0.667  0.000  0.001
  Li_i17  Li1+  0.067  0.067  0.600  0.001
  Li_i17  Li1+  0.867  0.467  0.400  0.001
  Li_i17  Li1+  0.267  0.467  0.000  0.001
  Li_i17  Li1+  0.667  0.867  0.600  0.001
  Li_i17  Li1+  0.667  0.267  0.400  0.001
  Li_i17  Li1+  0.667  0.067  0.000  0.001
  Li_i17  Li1+  0.467  0.467  0.000  0.001
  Li_i17  Li1+  0.267  0.267  0.400  0.001
  Li_i17  Li1+  0.267  0.867  0.600  0.001
  Li_i17  Li1+  0.267  0.667  0.400  0.001
  Li_i17  Li1+  0.667  0.667  0.800  0.001
  Li_i17  Li1+  0.667  0.467  0.200  0.001
  Li_i17  Li1+  0.467  0.267  0.000  0.001
  Li_i17  Li1+  0.867  0.867  0.600  0.001
  Li_i17  Li1+  0.667  0.667  0.000  0.001
  Li_i17  Li1+  0.067  0.267  0.400  0.001
  Li_i17  Li1+  0.867  0.067  0.600  0.001
  Li_i17  Li1+  0.467  0.867  0.400  0.001
  Li_i17  Li1+  0.467  0.467  0.600  0.001
  Li_i17  Li1+  0.267  0.867  0.200  0.001
  Li_i17  Li1+  0.267  0.667  0.800  0.001
  Li_i17  Li1+  0.467  0.667  0.800  0.001
  Li_i17  Li1+  0.867  0.667  0.600  0.001
  Li_i17  Li1+  0.467  0.667  0.200  0.001
  Li_i17  Li1+  0.867  0.267  0.600  0.001
  Li_i17  Li1+  0.667  0.067  0.800  0.001
  Li_i17  Li1+  0.867  0.467  0.600  0.001
  Li_i17  Li1+  0.267  0.067  0.600  0.001
  Li_i17  Li1+  0.067  0.667  0.400  0.001
  Li_i17  Li1+  0.067  0.267  0.000  0.001
  Li_i17  Li1+  0.067  0.067  0.200  0.001
  Li_i17  Li1+  0.667  0.867  0.800  0.001
  Li_i17  Li1+  0.067  0.467  0.600  0.001
  Li_i17  Li1+  0.067  0.267  0.800  0.001
  Li_i17  Li1+  0.467  0.067  0.600  0.001
  Li_i17  Li1+  0.467  0.267  0.600  0.001
  Li_i17  Li1+  0.867  0.867  0.800  0.001
  Li_i17  Li1+  0.667  0.267  0.600  0.001
  Li_i17  Li1+  0.267  0.467  0.400  0.001
  Li_i17  Li1+  0.267  0.067  0.400  0.001
  Li_i17  Li1+  0.667  0.867  0.000  0.001
  Li_i17  Li1+  0.667  0.067  0.200  0.001
  Li_i17  Li1+  0.067  0.667  0.600  0.001
  Li_i18  Li1+  0.067  0.392  0.989  0.001
  Li_i18  Li1+  0.792  0.067  0.189  0.001
  Li_i18  Li1+  0.192  0.867  0.389  0.001
  Li_i18  Li1+  0.592  0.667  0.989  0.001
  Li_i18  Li1+  0.992  0.267  0.189  0.001
  Li_i18  Li1+  0.667  0.592  0.989  0.001
  Li_i18  Li1+  0.192  0.067  0.389  0.001
  Li_i18  Li1+  0.392  0.067  0.189  0.001
  Li_i18  Li1+  0.067  0.192  0.189  0.001
  Li_i18  Li1+  0.667  0.392  0.589  0.001
  Li_i18  Li1+  0.792  0.467  0.989  0.001
  Li_i18  Li1+  0.667  0.992  0.589  0.001
  Li_i18  Li1+  0.192  0.867  0.789  0.001
  Li_i18  Li1+  0.067  0.392  0.589  0.001
  Li_i18  Li1+  0.467  0.192  0.989  0.001
  Li_i18  Li1+  0.267  0.792  0.589  0.001
  Li_i18  Li1+  0.792  0.867  0.589  0.001
  Li_i18  Li1+  0.792  0.267  0.589  0.001
  Li_i18  Li1+  0.267  0.392  0.189  0.001
  Li_i18  Li1+  0.867  0.792  0.189  0.001
  Li_i18  Li1+  0.067  0.792  0.789  0.001
  Li_i18  Li1+  0.467  0.592  0.989  0.001
  Li_i18  Li1+  0.192  0.667  0.189  0.001
  Li_i18  Li1+  0.592  0.067  0.989  0.001
  Li_i18  Li1+  0.992  0.667  0.189  0.001
  Li_i18  Li1+  0.067  0.192  0.389  0.001
  Li_i18  Li1+  0.867  0.392  0.389  0.001
  Li_i18  Li1+  0.467  0.392  0.989  0.001
  Li_i18  Li1+  0.592  0.467  0.989  0.001
  Li_i18  Li1+  0.392  0.667  0.589  0.001
  Li_i18  Li1+  0.067  0.592  0.989  0.001
  Li_i18  Li1+  0.992  0.267  0.389  0.001
  Li_i18  Li1+  0.667  0.192  0.389  0.001
  Li_i18  Li1+  0.392  0.267  0.189  0.001
  Li_i18  Li1+  0.467  0.192  0.189  0.001
  Li_i18  Li1+  0.467  0.992  0.189  0.001
  Li_i18  Li1+  0.667  0.792  0.189  0.001
  Li_i18  Li1+  0.592  0.267  0.989  0.001
  Li_i18  Li1+  0.792  0.067  0.389  0.001
  Li_i18  Li1+  0.267  0.992  0.389  0.001
  Li_i18  Li1+  0.667  0.992  0.789  0.001
  Li_i18  Li1+  0.067  0.592  0.189  0.001
  Li_i18  Li1+  0.792  0.667  0.189  0.001
  Li_i18  Li1+  0.192  0.667  0.789  0.001
  Li_i18  Li1+  0.867  0.792  0.389  0.001
  Li_i18  Li1+  0.667  0.392  0.789  0.001
  Li_i18  Li1+  0.792  0.867  0.789  0.001
  Li_i18  Li1+  0.592  0.867  0.189  0.001
  Li_i18  Li1+  0.192  0.267  0.989  0.001
  Li_i18  Li1+  0.992  0.667  0.389  0.001
  Li_i18  Li1+  0.592  0.067  0.189  0.001
  Li_i18  Li1+  0.267  0.592  0.989  0.001
  Li_i18  Li1+  0.792  0.267  0.789  0.001
  Li_i18  Li1+  0.867  0.392  0.589  0.001
  Li_i18  Li1+  0.392  0.867  0.389  0.001
  Li_i18  Li1+  0.267  0.392  0.789  0.001
  Li_i18  Li1+  0.192  0.067  0.189  0.001
  Li_i18  Li1+  0.067  0.592  0.789  0.001
  Li_i18  Li1+  0.992  0.267  0.589  0.001
  Li_i18  Li1+  0.267  0.592  0.389  0.001
  Li_i18  Li1+  0.392  0.467  0.989  0.001
  Li_i18  Li1+  0.192  0.467  0.989  0.001
  Li_i18  Li1+  0.267  0.192  0.789  0.001
  Li_i18  Li1+  0.467  0.792  0.189  0.001
  Li_i18  Li1+  0.467  0.392  0.189  0.001
  Li_i18  Li1+  0.392  0.267  0.789  0.001
  Li_i18  Li1+  0.067  0.992  0.189  0.001
  Li_i18  Li1+  0.667  0.792  0.389  0.001
  Li_i18  Li1+  0.667  0.192  0.589  0.001
  Li_i18  Li1+  0.867  0.792  0.589  0.001
  Li_i18  Li1+  0.667  0.992  0.989  0.001
  Li_i18  Li1+  0.392  0.467  0.389  0.001
  Li_i18  Li1+  0.592  0.667  0.189  0.001
  Li_i18  Li1+  0.067  0.592  0.389  0.001
  Li_i18  Li1+  0.992  0.667  0.589  0.001
  Li_i18  Li1+  0.792  0.667  0.389  0.001
  Li_i18  Li1+  0.792  0.867  0.989  0.001
  Li_i18  Li1+  0.467  0.592  0.189  0.001
  Li_i18  Li1+  0.792  0.067  0.589  0.001
  Li_i18  Li1+  0.467  0.992  0.389  0.001
  Li_i18  Li1+  0.867  0.392  0.789  0.001
  Li_i18  Li1+  0.667  0.392  0.989  0.001
  Li_i18  Li1+  0.592  0.267  0.189  0.001
  Li_i18  Li1+  0.067  0.592  0.589  0.001
  Li_i18  Li1+  0.067  0.392  0.189  0.001
  Li_i18  Li1+  0.992  0.267  0.789  0.001
  Li_i18  Li1+  0.267  0.792  0.789  0.001
  Li_i18  Li1+  0.792  0.267  0.989  0.001
  Li_i18  Li1+  0.592  0.867  0.389  0.001
  Li_i18  Li1+  0.592  0.467  0.189  0.001
  Li_i18  Li1+  0.392  0.067  0.789  0.001
  Li_i18  Li1+  0.067  0.792  0.589  0.001
  Li_i18  Li1+  0.192  0.867  0.189  0.001
  Li_i18  Li1+  0.467  0.192  0.389  0.001
  Li_i18  Li1+  0.867  0.792  0.789  0.001
  Li_i18  Li1+  0.267  0.192  0.389  0.001
  Li_i18  Li1+  0.392  0.667  0.789  0.001
  Li_i18  Li1+  0.267  0.992  0.589  0.001
  Li_i18  Li1+  0.067  0.992  0.589  0.001
  Li_i18  Li1+  0.992  0.667  0.789  0.001
  Li_i18  Li1+  0.867  0.192  0.189  0.001
  Li_i18  Li1+  0.667  0.792  0.589  0.001
  Li_i18  Li1+  0.592  0.067  0.389  0.001
  Li_i18  Li1+  0.067  0.392  0.389  0.001
  Li_i18  Li1+  0.067  0.992  0.989  0.001
  Li_i18  Li1+  0.992  0.067  0.189  0.001
  Li_i18  Li1+  0.192  0.467  0.789  0.001
  Li_i18  Li1+  0.867  0.392  0.989  0.001
  Li_i18  Li1+  0.792  0.667  0.589  0.001
  Li_i18  Li1+  0.667  0.192  0.789  0.001
  Li_i18  Li1+  0.467  0.792  0.389  0.001
  Li_i18  Li1+  0.392  0.867  0.589  0.001
  Li_i18  Li1+  0.992  0.267  0.989  0.001
  Li_i18  Li1+  0.267  0.392  0.389  0.001
  Li_i18  Li1+  0.392  0.067  0.389  0.001
  Li_i18  Li1+  0.667  0.592  0.189  0.001
  Li_i18  Li1+  0.792  0.067  0.789  0.001
  Li_i18  Li1+  0.192  0.467  0.189  0.001
  Li_i18  Li1+  0.592  0.667  0.389  0.001
  Li_i18  Li1+  0.867  0.792  0.989  0.001
  Li_i18  Li1+  0.467  0.992  0.589  0.001
  Li_i18  Li1+  0.792  0.467  0.189  0.001
  Li_i18  Li1+  0.467  0.392  0.389  0.001
  Li_i18  Li1+  0.267  0.792  0.189  0.001
  Li_i18  Li1+  0.992  0.667  0.989  0.001
  Li_i18  Li1+  0.192  0.267  0.589  0.001
  Li_i18  Li1+  0.467  0.592  0.389  0.001
  Li_i18  Li1+  0.592  0.867  0.589  0.001
  Li_i18  Li1+  0.192  0.867  0.589  0.001
  Li_i18  Li1+  0.867  0.192  0.389  0.001
  Li_i18  Li1+  0.392  0.267  0.389  0.001
  Li_i18  Li1+  0.592  0.267  0.389  0.001
  Li_i18  Li1+  0.667  0.792  0.789  0.001
  Li_i18  Li1+  0.192  0.867  0.989  0.001
  Li_i18  Li1+  0.867  0.592  0.189  0.001
  Li_i18  Li1+  0.992  0.067  0.389  0.001
  Li_i18  Li1+  0.592  0.467  0.389  0.001
  Li_i18  Li1+  0.392  0.667  0.189  0.001
  Li_i18  Li1+  0.267  0.392  0.989  0.001
  Li_i18  Li1+  0.992  0.467  0.189  0.001
  Li_i18  Li1+  0.792  0.667  0.789  0.001
  Li_i18  Li1+  0.267  0.592  0.589  0.001
  Li_i18  Li1+  0.192  0.667  0.589  0.001
  Li_i18  Li1+  0.192  0.467  0.589  0.001
  Li_i18  Li1+  0.867  0.992  0.189  0.001
  Li_i18  Li1+  0.192  0.467  0.389  0.001
  Li_i18  Li1+  0.667  0.192  0.989  0.001
  Li_i18  Li1+  0.192  0.067  0.989  0.001
  Li_i18  Li1+  0.467  0.192  0.589  0.001
  Li_i18  Li1+  0.992  0.867  0.189  0.001
  Li_i18  Li1+  0.667  0.592  0.389  0.001
  Li_i18  Li1+  0.267  0.792  0.989  0.001
  Li_i18  Li1+  0.392  0.467  0.589  0.001
  Li_i18  Li1+  0.792  0.067  0.989  0.001
  Li_i18  Li1+  0.467  0.792  0.589  0.001
  Li_i18  Li1+  0.792  0.467  0.389  0.001
  Li_i18  Li1+  0.392  0.267  0.989  0.001
  Li_i18  Li1+  0.192  0.067  0.789  0.001
  Li_i18  Li1+  0.867  0.192  0.589  0.001
  Li_i18  Li1+  0.592  0.067  0.589  0.001
  Li_i18  Li1+  0.467  0.992  0.789  0.001
  Li_i18  Li1+  0.867  0.592  0.389  0.001
  Li_i18  Li1+  0.267  0.992  0.789  0.001
  Li_i18  Li1+  0.592  0.667  0.589  0.001
  Li_i18  Li1+  0.992  0.067  0.589  0.001
  Li_i18  Li1+  0.667  0.792  0.989  0.001
  Li_i18  Li1+  0.992  0.467  0.389  0.001
  Li_i18  Li1+  0.192  0.067  0.589  0.001
  Li_i18  Li1+  0.392  0.667  0.989  0.001
  Li_i18  Li1+  0.867  0.992  0.389  0.001
  Li_i18  Li1+  0.592  0.867  0.789  0.001
  Li_i18  Li1+  0.067  0.792  0.389  0.001
  Li_i18  Li1+  0.792  0.667  0.989  0.001
  Li_i18  Li1+  0.267  0.192  0.989  0.001
  Li_i18  Li1+  0.992  0.867  0.389  0.001
  Li_i18  Li1+  0.467  0.392  0.589  0.001
  Li_i18  Li1+  0.467  0.592  0.589  0.001
  Li_i18  Li1+  0.392  0.867  0.789  0.001
  Li_i18  Li1+  0.067  0.792  0.989  0.001
  Li_i18  Li1+  0.067  0.392  0.789  0.001
  Li_i18  Li1+  0.067  0.192  0.589  0.001
  Li_i18  Li1+  0.592  0.467  0.589  0.001
  Li_i18  Li1+  0.667  0.392  0.189  0.001
  Li_i18  Li1+  0.667  0.592  0.589  0.001
  Li_i18  Li1+  0.592  0.267  0.589  0.001
  Li_i18  Li1+  0.192  0.267  0.389  0.001
  Li_i18  Li1+  0.392  0.067  0.989  0.001
  Li_i18  Li1+  0.867  0.192  0.789  0.001
  Li_i18  Li1+  0.867  0.592  0.589  0.001
  Li_i18  Li1+  0.192  0.267  0.189  0.001
  Li_i18  Li1+  0.792  0.467  0.589  0.001
  Li_i18  Li1+  0.792  0.267  0.189  0.001
  Li_i18  Li1+  0.192  0.667  0.989  0.001
  Li_i18  Li1+  0.992  0.467  0.589  0.001
  Li_i18  Li1+  0.867  0.992  0.589  0.001
  Li_i18  Li1+  0.992  0.067  0.789  0.001
  Li_i18  Li1+  0.267  0.792  0.389  0.001
  Li_i18  Li1+  0.192  0.667  0.389  0.001
  Li_i18  Li1+  0.667  0.992  0.189  0.001
  Li_i18  Li1+  0.992  0.867  0.589  0.001
  Li_i18  Li1+  0.067  0.192  0.789  0.001
  Li_i18  Li1+  0.467  0.792  0.789  0.001
  Li_i18  Li1+  0.267  0.192  0.589  0.001
  Li_i18  Li1+  0.467  0.992  0.989  0.001
  Li_i18  Li1+  0.792  0.867  0.189  0.001
  Li_i18  Li1+  0.267  0.392  0.589  0.001
  Li_i18  Li1+  0.392  0.667  0.389  0.001
  Li_i18  Li1+  0.467  0.192  0.789  0.001
  Li_i18  Li1+  0.592  0.667  0.789  0.001
  Li_i18  Li1+  0.592  0.867  0.989  0.001
  Li_i18  Li1+  0.067  0.992  0.389  0.001
  Li_i18  Li1+  0.192  0.267  0.789  0.001
  Li_i18  Li1+  0.067  0.192  0.989  0.001
  Li_i18  Li1+  0.267  0.592  0.789  0.001
  Li_i18  Li1+  0.592  0.067  0.789  0.001
  Li_i18  Li1+  0.867  0.592  0.789  0.001
  Li_i18  Li1+  0.267  0.992  0.189  0.001
  Li_i18  Li1+  0.867  0.192  0.989  0.001
  Li_i18  Li1+  0.667  0.592  0.789  0.001
  Li_i18  Li1+  0.867  0.992  0.789  0.001
  Li_i18  Li1+  0.067  0.792  0.189  0.001
  Li_i18  Li1+  0.992  0.467  0.789  0.001
  Li_i18  Li1+  0.667  0.392  0.389  0.001
  Li_i18  Li1+  0.467  0.592  0.789  0.001
  Li_i18  Li1+  0.992  0.867  0.789  0.001
  Li_i18  Li1+  0.992  0.067  0.989  0.001
  Li_i18  Li1+  0.267  0.992  0.989  0.001
  Li_i18  Li1+  0.792  0.467  0.789  0.001
  Li_i18  Li1+  0.467  0.392  0.789  0.001
  Li_i18  Li1+  0.267  0.592  0.189  0.001
  Li_i18  Li1+  0.667  0.992  0.389  0.001
  Li_i18  Li1+  0.792  0.267  0.389  0.001
  Li_i18  Li1+  0.392  0.267  0.589  0.001
  Li_i18  Li1+  0.592  0.467  0.789  0.001
  Li_i18  Li1+  0.392  0.067  0.589  0.001
  Li_i18  Li1+  0.792  0.867  0.389  0.001
  Li_i18  Li1+  0.392  0.867  0.189  0.001
  Li_i18  Li1+  0.592  0.267  0.789  0.001
  Li_i18  Li1+  0.392  0.867  0.989  0.001
  Li_i18  Li1+  0.392  0.467  0.789  0.001
  Li_i18  Li1+  0.267  0.192  0.189  0.001
  Li_i18  Li1+  0.667  0.192  0.189  0.001
  Li_i18  Li1+  0.867  0.592  0.989  0.001
  Li_i18  Li1+  0.467  0.792  0.989  0.001
  Li_i18  Li1+  0.867  0.992  0.989  0.001
  Li_i18  Li1+  0.067  0.992  0.789  0.001
  Li_i18  Li1+  0.392  0.467  0.189  0.001
  Li_i18  Li1+  0.867  0.392  0.189  0.001
  Li_i18  Li1+  0.992  0.467  0.989  0.001
  Li_i18  Li1+  0.992  0.867  0.989  0.001
  Li_i19  Li1+  0.529  0.529  0.219  0.001
  Li_i19  Li1+  0.929  0.129  0.419  0.001
  Li_i19  Li1+  0.329  0.729  0.219  0.001
  Li_i19  Li1+  0.329  0.529  0.019  0.001
  Li_i19  Li1+  0.129  0.129  0.619  0.001
  Li_i19  Li1+  0.129  0.129  0.019  0.001
  Li_i19  Li1+  0.929  0.729  0.019  0.001
  Li_i19  Li1+  0.329  0.529  0.619  0.001
  Li_i19  Li1+  0.129  0.129  0.819  0.001
  Li_i19  Li1+  0.129  0.529  0.819  0.001
  Li_i19  Li1+  0.729  0.329  0.819  0.001
  Li_i19  Li1+  0.529  0.729  0.819  0.001
  Li_i19  Li1+  0.329  0.329  0.019  0.001
  Li_i19  Li1+  0.729  0.729  0.219  0.001
  Li_i19  Li1+  0.129  0.929  0.219  0.001
  Li_i19  Li1+  0.529  0.329  0.819  0.001
  Li_i19  Li1+  0.929  0.929  0.019  0.001
  Li_i19  Li1+  0.329  0.729  0.619  0.001
  Li_i19  Li1+  0.129  0.529  0.219  0.001
  Li_i19  Li1+  0.929  0.529  0.219  0.001
  Li_i19  Li1+  0.729  0.329  0.219  0.001
  Li_i19  Li1+  0.529  0.929  0.419  0.001
  Li_i19  Li1+  0.129  0.329  0.419  0.001
  Li_i19  Li1+  0.529  0.529  0.819  0.001
  Li_i19  Li1+  0.729  0.929  0.019  0.001
  Li_i19  Li1+  0.729  0.129  0.619  0.001
  Li_i19  Li1+  0.729  0.129  0.019  0.001
  Li_i19  Li1+  0.929  0.329  0.419  0.001
  Li_i19  Li1+  0.129  0.529  0.619  0.001
  Li_i19  Li1+  0.329  0.329  0.819  0.001
  Li_i19  Li1+  0.729  0.929  0.819  0.001
  Li_i19  Li1+  0.929  0.129  0.619  0.001
  Li_i19  Li1+  0.329  0.129  0.819  0.001
  Li_i19  Li1+  0.929  0.729  0.219  0.001
  Li_i19  Li1+  0.729  0.529  0.619  0.001
  Li_i19  Li1+  0.129  0.929  0.419  0.001
  Li_i19  Li1+  0.529  0.329  0.419  0.001
  Li_i19  Li1+  0.329  0.929  0.019  0.001
  Li_i19  Li1+  0.129  0.729  0.619  0.001
  Li_i19  Li1+  0.329  0.729  0.019  0.001
  Li_i19  Li1+  0.129  0.529  0.419  0.001
  Li_i19  Li1+  0.329  0.529  0.419  0.001
  Li_i19  Li1+  0.929  0.929  0.219  0.001
  Li_i19  Li1+  0.529  0.729  0.419  0.001
  Li_i19  Li1+  0.529  0.329  0.019  0.001
  Li_i19  Li1+  0.329  0.929  0.419  0.001
  Li_i19  Li1+  0.729  0.529  0.019  0.001
  Li_i19  Li1+  0.929  0.529  0.419  0.001
  Li_i19  Li1+  0.729  0.729  0.419  0.001
  Li_i19  Li1+  0.529  0.529  0.419  0.001
  Li_i19  Li1+  0.329  0.129  0.619  0.001
  Li_i19  Li1+  0.129  0.929  0.619  0.001
  Li_i19  Li1+  0.529  0.129  0.619  0.001
  Li_i19  Li1+  0.329  0.929  0.819  0.001
  Li_i19  Li1+  0.529  0.929  0.019  0.001
  Li_i19  Li1+  0.529  0.129  0.219  0.001
  Li_i19  Li1+  0.929  0.329  0.619  0.001
  Li_i19  Li1+  0.729  0.929  0.219  0.001
  Li_i19  Li1+  0.729  0.329  0.419  0.001
  Li_i19  Li1+  0.129  0.729  0.219  0.001
  Li_i19  Li1+  0.929  0.729  0.419  0.001
  Li_i19  Li1+  0.329  0.129  0.419  0.001
  Li_i19  Li1+  0.929  0.129  0.819  0.001
  Li_i19  Li1+  0.929  0.129  0.019  0.001
  Li_i19  Li1+  0.329  0.329  0.619  0.001
  Li_i19  Li1+  0.529  0.929  0.619  0.001
  Li_i19  Li1+  0.729  0.129  0.819  0.001
  Li_i19  Li1+  0.129  0.929  0.819  0.001
  Li_i19  Li1+  0.929  0.929  0.419  0.001
  Li_i19  Li1+  0.729  0.529  0.819  0.001
  Li_i19  Li1+  0.729  0.129  0.219  0.001
  Li_i19  Li1+  0.329  0.129  0.219  0.001
  Li_i19  Li1+  0.529  0.529  0.019  0.001
  Li_i19  Li1+  0.329  0.729  0.419  0.001
  Li_i19  Li1+  0.529  0.729  0.019  0.001
  Li_i19  Li1+  0.929  0.529  0.619  0.001
  Li_i19  Li1+  0.329  0.129  0.019  0.001
  Li_i19  Li1+  0.129  0.329  0.819  0.001
  Li_i19  Li1+  0.129  0.329  0.019  0.001
  Li_i19  Li1+  0.129  0.329  0.619  0.001
  Li_i19  Li1+  0.329  0.529  0.219  0.001
  Li_i19  Li1+  0.729  0.729  0.619  0.001
  Li_i19  Li1+  0.329  0.529  0.819  0.001
  Li_i19  Li1+  0.729  0.529  0.219  0.001
  Li_i19  Li1+  0.129  0.129  0.419  0.001
  Li_i19  Li1+  0.929  0.329  0.819  0.001
  Li_i19  Li1+  0.529  0.329  0.619  0.001
  Li_i19  Li1+  0.929  0.729  0.619  0.001
  Li_i19  Li1+  0.329  0.729  0.819  0.001
  Li_i19  Li1+  0.529  0.729  0.619  0.001
  Li_i19  Li1+  0.729  0.929  0.419  0.001
  Li_i19  Li1+  0.329  0.329  0.419  0.001
  Li_i19  Li1+  0.929  0.329  0.019  0.001
  Li_i19  Li1+  0.129  0.729  0.819  0.001
  Li_i19  Li1+  0.929  0.929  0.619  0.001
  Li_i19  Li1+  0.929  0.129  0.219  0.001
  Li_i19  Li1+  0.129  0.329  0.219  0.001
  Li_i19  Li1+  0.129  0.129  0.219  0.001
  Li_i19  Li1+  0.729  0.329  0.619  0.001
  Li_i19  Li1+  0.529  0.529  0.619  0.001
  Li_i19  Li1+  0.129  0.729  0.019  0.001
  Li_i19  Li1+  0.529  0.929  0.219  0.001
  Li_i19  Li1+  0.529  0.329  0.219  0.001
  Li_i19  Li1+  0.929  0.529  0.819  0.001
  Li_i19  Li1+  0.729  0.729  0.019  0.001
  Li_i19  Li1+  0.329  0.929  0.219  0.001
  Li_i19  Li1+  0.729  0.329  0.019  0.001
  Li_i19  Li1+  0.129  0.529  0.019  0.001
  Li_i19  Li1+  0.529  0.929  0.819  0.001
  Li_i19  Li1+  0.729  0.129  0.419  0.001
  Li_i19  Li1+  0.129  0.729  0.419  0.001
  Li_i19  Li1+  0.329  0.329  0.219  0.001
  Li_i19  Li1+  0.529  0.129  0.819  0.001
  Li_i19  Li1+  0.329  0.929  0.619  0.001
  Li_i19  Li1+  0.929  0.729  0.819  0.001
  Li_i19  Li1+  0.929  0.529  0.019  0.001
  Li_i19  Li1+  0.729  0.729  0.819  0.001
  Li_i19  Li1+  0.129  0.929  0.019  0.001
  Li_i19  Li1+  0.529  0.129  0.419  0.001
  Li_i19  Li1+  0.529  0.129  0.019  0.001
  Li_i19  Li1+  0.929  0.929  0.819  0.001
  Li_i19  Li1+  0.729  0.529  0.419  0.001
  Li_i19  Li1+  0.529  0.729  0.219  0.001
  Li_i19  Li1+  0.929  0.329  0.219  0.001
  Li_i19  Li1+  0.729  0.929  0.619  0.001
  Li0  Li1+  0.296  0.496  0.210  1.000
  Li0  Li1+  0.096  0.296  0.010  1.000
  Li0  Li1+  0.096  0.496  0.010  1.000
  Li0  Li1+  0.096  0.096  0.210  1.000
  Li0  Li1+  0.496  0.696  0.610  1.000
  Li0  Li1+  0.496  0.696  0.810  1.000
  Li0  Li1+  0.296  0.496  0.410  1.000
  Li0  Li1+  0.496  0.896  0.010  1.000
  Li0  Li1+  0.096  0.896  0.010  1.000
  Li0  Li1+  0.296  0.496  0.610  1.000
  Li0  Li1+  0.496  0.896  0.210  1.000
  Li0  Li1+  0.496  0.896  0.410  1.000
  Li0  Li1+  0.296  0.496  0.810  1.000
  Li0  Li1+  0.496  0.896  0.610  1.000
  Li0  Li1+  0.096  0.896  0.210  1.000
  Li0  Li1+  0.096  0.496  0.210  1.000
  Li0  Li1+  0.496  0.896  0.810  1.000
  Li0  Li1+  0.296  0.696  0.010  1.000
  Li0  Li1+  0.696  0.096  0.010  1.000
  Li0  Li1+  0.696  0.096  0.210  1.000
  Li0  Li1+  0.296  0.696  0.210  1.000
  Li0  Li1+  0.096  0.896  0.410  1.000
  Li0  Li1+  0.696  0.096  0.410  1.000
  Li0  Li1+  0.696  0.096  0.610  1.000
  Li0  Li1+  0.296  0.696  0.410  1.000
  Li0  Li1+  0.096  0.296  0.210  1.000
  Li0  Li1+  0.696  0.096  0.810  1.000
  Li0  Li1+  0.696  0.296  0.010  1.000
  Li0  Li1+  0.296  0.696  0.610  1.000
  Li0  Li1+  0.096  0.496  0.410  1.000
  Li0  Li1+  0.096  0.896  0.610  1.000
  Li0  Li1+  0.096  0.096  0.610  1.000
  Li0  Li1+  0.696  0.296  0.210  1.000
  Li0  Li1+  0.296  0.696  0.810  1.000
  Li0  Li1+  0.696  0.296  0.410  1.000
  Li0  Li1+  0.696  0.296  0.610  1.000
  Li0  Li1+  0.296  0.896  0.010  1.000
  Li0  Li1+  0.096  0.896  0.810  1.000
  Li0  Li1+  0.696  0.296  0.810  1.000
  Li0  Li1+  0.696  0.496  0.010  1.000
  Li0  Li1+  0.296  0.896  0.210  1.000
  Li0  Li1+  0.696  0.496  0.210  1.000
  Li0  Li1+  0.096  0.496  0.610  1.000
  Li0  Li1+  0.696  0.496  0.410  1.000
  Li0  Li1+  0.296  0.096  0.010  1.000
  Li0  Li1+  0.296  0.896  0.410  1.000
  Li0  Li1+  0.696  0.496  0.610  1.000
  Li0  Li1+  0.696  0.496  0.810  1.000
  Li0  Li1+  0.296  0.896  0.610  1.000
  Li0  Li1+  0.696  0.696  0.010  1.000
  Li0  Li1+  0.096  0.296  0.410  1.000
  Li0  Li1+  0.296  0.096  0.210  1.000
  Li0  Li1+  0.696  0.696  0.210  1.000
  Li0  Li1+  0.296  0.896  0.810  1.000
  Li0  Li1+  0.096  0.496  0.810  1.000
  Li0  Li1+  0.696  0.696  0.410  1.000
  Li0  Li1+  0.696  0.696  0.610  1.000
  Li0  Li1+  0.496  0.096  0.010  1.000
  Li0  Li1+  0.296  0.096  0.410  1.000
  Li0  Li1+  0.696  0.696  0.810  1.000
  Li0  Li1+  0.496  0.096  0.210  1.000
  Li0  Li1+  0.696  0.896  0.010  1.000
  Li0  Li1+  0.696  0.896  0.210  1.000
  Li0  Li1+  0.496  0.096  0.410  1.000
  Li0  Li1+  0.696  0.896  0.410  1.000
  Li0  Li1+  0.296  0.096  0.610  1.000
  Li0  Li1+  0.696  0.896  0.610  1.000
  Li0  Li1+  0.096  0.696  0.010  1.000
  Li0  Li1+  0.496  0.096  0.610  1.000
  Li0  Li1+  0.696  0.896  0.810  1.000
  Li0  Li1+  0.896  0.096  0.010  1.000
  Li0  Li1+  0.496  0.096  0.810  1.000
  Li0  Li1+  0.296  0.096  0.810  1.000
  Li0  Li1+  0.096  0.296  0.610  1.000
  Li0  Li1+  0.896  0.096  0.210  1.000
  Li0  Li1+  0.896  0.096  0.410  1.000
  Li0  Li1+  0.496  0.296  0.010  1.000
  Li0  Li1+  0.096  0.096  0.810  1.000
  Li0  Li1+  0.896  0.096  0.610  1.000
  Li0  Li1+  0.896  0.096  0.810  1.000
  Li0  Li1+  0.496  0.296  0.210  1.000
  Li0  Li1+  0.296  0.296  0.010  1.000
  Li0  Li1+  0.096  0.696  0.210  1.000
  Li0  Li1+  0.896  0.296  0.010  1.000
  Li0  Li1+  0.496  0.296  0.410  1.000
  Li0  Li1+  0.896  0.296  0.210  1.000
  Li0  Li1+  0.896  0.296  0.410  1.000
  Li0  Li1+  0.296  0.296  0.210  1.000
  Li0  Li1+  0.496  0.296  0.610  1.000
  Li0  Li1+  0.896  0.296  0.610  1.000
  Li0  Li1+  0.096  0.096  0.410  1.000
  Li0  Li1+  0.096  0.096  0.010  1.000
  Li0  Li1+  0.896  0.296  0.810  1.000
  Li0  Li1+  0.496  0.296  0.810  1.000
  Li0  Li1+  0.896  0.496  0.010  1.000
  Li0  Li1+  0.896  0.496  0.210  1.000
  Li0  Li1+  0.296  0.296  0.410  1.000
  Li0  Li1+  0.496  0.496  0.010  1.000
  Li0  Li1+  0.096  0.696  0.410  1.000
  Li0  Li1+  0.896  0.496  0.410  1.000
  Li0  Li1+  0.096  0.296  0.810  1.000
  Li0  Li1+  0.896  0.496  0.610  1.000
  Li0  Li1+  0.496  0.496  0.210  1.000
  Li0  Li1+  0.896  0.496  0.810  1.000
  Li0  Li1+  0.296  0.296  0.610  1.000
  Li0  Li1+  0.896  0.696  0.010  1.000
  Li0  Li1+  0.496  0.496  0.410  1.000
  Li0  Li1+  0.896  0.696  0.210  1.000
  Li0  Li1+  0.896  0.696  0.410  1.000
  Li0  Li1+  0.496  0.496  0.610  1.000
  Li0  Li1+  0.096  0.696  0.610  1.000
  Li0  Li1+  0.296  0.296  0.810  1.000
  Li0  Li1+  0.896  0.696  0.610  1.000
  Li0  Li1+  0.496  0.496  0.810  1.000
  Li0  Li1+  0.896  0.696  0.810  1.000
  Li0  Li1+  0.896  0.896  0.010  1.000
  Li0  Li1+  0.496  0.696  0.010  1.000
  Li0  Li1+  0.896  0.896  0.210  1.000
  Li0  Li1+  0.296  0.496  0.010  1.000
  Li0  Li1+  0.896  0.896  0.410  1.000
  Li0  Li1+  0.496  0.696  0.210  1.000
  Li0  Li1+  0.896  0.896  0.610  1.000
  Li0  Li1+  0.896  0.896  0.810  1.000
  Li0  Li1+  0.096  0.696  0.810  1.000
  Li0  Li1+  0.496  0.696  0.410  1.000
  Li1  Li1+  0.496  0.096  0.228  1.000
  Li1  Li1+  0.696  0.896  0.028  1.000
  Li1  Li1+  0.496  0.696  0.828  1.000
  Li1  Li1+  0.696  0.896  0.228  1.000
  Li1  Li1+  0.096  0.496  0.428  1.000
  Li1  Li1+  0.496  0.096  0.428  1.000
  Li1  Li1+  0.096  0.896  0.628  1.000
  Li1  Li1+  0.696  0.896  0.428  1.000
  Li1  Li1+  0.296  0.496  0.428  1.000
  Li1  Li1+  0.296  0.096  0.628  1.000
  Li1  Li1+  0.096  0.496  0.028  1.000
  Li1  Li1+  0.696  0.896  0.628  1.000
  Li1  Li1+  0.696  0.296  0.228  1.000
  Li1  Li1+  0.096  0.096  0.628  1.000
  Li1  Li1+  0.496  0.096  0.628  1.000
  Li1  Li1+  0.096  0.896  0.228  1.000
  Li1  Li1+  0.696  0.896  0.828  1.000
  Li1  Li1+  0.096  0.696  0.028  1.000
  Li1  Li1+  0.496  0.896  0.828  1.000
  Li1  Li1+  0.896  0.096  0.028  1.000
  Li1  Li1+  0.696  0.296  0.428  1.000
  Li1  Li1+  0.496  0.096  0.828  1.000
  Li1  Li1+  0.296  0.696  0.828  1.000
  Li1  Li1+  0.096  0.496  0.228  1.000
  Li1  Li1+  0.696  0.296  0.628  1.000
  Li1  Li1+  0.296  0.096  0.828  1.000
  Li1  Li1+  0.896  0.096  0.228  1.000
  Li1  Li1+  0.496  0.896  0.028  1.000
  Li1  Li1+  0.896  0.096  0.428  1.000
  Li1  Li1+  0.296  0.696  0.028  1.000
  Li1  Li1+  0.496  0.296  0.028  1.000
  Li1  Li1+  0.096  0.696  0.828  1.000
  Li1  Li1+  0.096  0.296  0.628  1.000
  Li1  Li1+  0.296  0.896  0.028  1.000
  Li1  Li1+  0.896  0.096  0.628  1.000
  Li1  Li1+  0.696  0.296  0.828  1.000
  Li1  Li1+  0.096  0.896  0.828  1.000
  Li1  Li1+  0.896  0.096  0.828  1.000
  Li1  Li1+  0.696  0.096  0.028  1.000
  Li1  Li1+  0.496  0.296  0.228  1.000
  Li1  Li1+  0.296  0.296  0.028  1.000
  Li1  Li1+  0.096  0.096  0.828  1.000
  Li1  Li1+  0.696  0.496  0.028  1.000
  Li1  Li1+  0.096  0.896  0.028  1.000
  Li1  Li1+  0.896  0.296  0.028  1.000
  Li1  Li1+  0.096  0.696  0.228  1.000
  Li1  Li1+  0.296  0.896  0.228  1.000
  Li1  Li1+  0.696  0.096  0.228  1.000
  Li1  Li1+  0.896  0.296  0.228  1.000
  Li1  Li1+  0.496  0.296  0.428  1.000
  Li1  Li1+  0.096  0.296  0.028  1.000
  Li1  Li1+  0.896  0.296  0.428  1.000
  Li1  Li1+  0.696  0.496  0.228  1.000
  Li1  Li1+  0.296  0.696  0.228  1.000
  Li1  Li1+  0.696  0.496  0.428  1.000
  Li1  Li1+  0.496  0.296  0.628  1.000
  Li1  Li1+  0.296  0.296  0.228  1.000
  Li1  Li1+  0.896  0.296  0.628  1.000
  Li1  Li1+  0.096  0.496  0.628  1.000
  Li1  Li1+  0.496  0.696  0.428  1.000
  Li1  Li1+  0.296  0.496  0.628  1.000
  Li1  Li1+  0.896  0.296  0.828  1.000
  Li1  Li1+  0.296  0.096  0.028  1.000
  Li1  Li1+  0.496  0.296  0.828  1.000
  Li1  Li1+  0.296  0.896  0.428  1.000
  Li1  Li1+  0.896  0.496  0.028  1.000
  Li1  Li1+  0.096  0.896  0.428  1.000
  Li1  Li1+  0.896  0.496  0.228  1.000
  Li1  Li1+  0.696  0.496  0.628  1.000
  Li1  Li1+  0.696  0.096  0.428  1.000
  Li1  Li1+  0.696  0.496  0.828  1.000
  Li1  Li1+  0.296  0.296  0.428  1.000
  Li1  Li1+  0.496  0.496  0.028  1.000
  Li1  Li1+  0.096  0.696  0.428  1.000
  Li1  Li1+  0.096  0.096  0.228  1.000
  Li1  Li1+  0.296  0.896  0.628  1.000
  Li1  Li1+  0.896  0.496  0.428  1.000
  Li1  Li1+  0.496  0.896  0.228  1.000
  Li1  Li1+  0.896  0.496  0.628  1.000
  Li1  Li1+  0.696  0.096  0.628  1.000
  Li1  Li1+  0.496  0.496  0.228  1.000
  Li1  Li1+  0.096  0.296  0.828  1.000
  Li1  Li1+  0.696  0.696  0.028  1.000
  Li1  Li1+  0.896  0.496  0.828  1.000
  Li1  Li1+  0.496  0.696  0.628  1.000
  Li1  Li1+  0.496  0.896  0.428  1.000
  Li1  Li1+  0.296  0.296  0.628  1.000
  Li1  Li1+  0.896  0.696  0.028  1.000
  Li1  Li1+  0.296  0.096  0.228  1.000
  Li1  Li1+  0.496  0.496  0.428  1.000
  Li1  Li1+  0.096  0.096  0.428  1.000
  Li1  Li1+  0.696  0.696  0.228  1.000
  Li1  Li1+  0.896  0.696  0.228  1.000
  Li1  Li1+  0.296  0.696  0.428  1.000
  Li1  Li1+  0.296  0.896  0.828  1.000
  Li1  Li1+  0.896  0.696  0.428  1.000
  Li1  Li1+  0.496  0.496  0.628  1.000
  Li1  Li1+  0.096  0.296  0.428  1.000
  Li1  Li1+  0.296  0.496  0.228  1.000
  Li1  Li1+  0.696  0.096  0.828  1.000
  Li1  Li1+  0.896  0.696  0.628  1.000
  Li1  Li1+  0.296  0.296  0.828  1.000
  Li1  Li1+  0.096  0.696  0.628  1.000
  Li1  Li1+  0.696  0.696  0.428  1.000
  Li1  Li1+  0.296  0.496  0.828  1.000
  Li1  Li1+  0.496  0.496  0.828  1.000
  Li1  Li1+  0.896  0.696  0.828  1.000
  Li1  Li1+  0.096  0.096  0.028  1.000
  Li1  Li1+  0.896  0.896  0.028  1.000
  Li1  Li1+  0.696  0.696  0.628  1.000
  Li1  Li1+  0.496  0.696  0.028  1.000
  Li1  Li1+  0.496  0.096  0.028  1.000
  Li1  Li1+  0.896  0.896  0.228  1.000
  Li1  Li1+  0.096  0.496  0.828  1.000
  Li1  Li1+  0.296  0.496  0.028  1.000
  Li1  Li1+  0.696  0.296  0.028  1.000
  Li1  Li1+  0.896  0.896  0.428  1.000
  Li1  Li1+  0.496  0.896  0.628  1.000
  Li1  Li1+  0.496  0.696  0.228  1.000
  Li1  Li1+  0.696  0.696  0.828  1.000
  Li1  Li1+  0.896  0.896  0.628  1.000
  Li1  Li1+  0.296  0.096  0.428  1.000
  Li1  Li1+  0.896  0.896  0.828  1.000
  Li1  Li1+  0.096  0.296  0.228  1.000
  Li1  Li1+  0.296  0.696  0.628  1.000
  Li2  Li1+  0.950  0.346  0.014  1.000
  Li2  Li1+  0.550  0.746  0.814  1.000
  Li2  Li1+  0.750  0.746  0.614  1.000
  Li2  Li1+  0.750  0.346  0.814  1.000
  Li2  Li1+  0.150  0.146  0.014  1.000
  Li2  Li1+  0.150  0.146  0.414  1.000
  Li2  Li1+  0.550  0.346  0.414  1.000
  Li2  Li1+  0.550  0.146  0.014  1.000
  Li2  Li1+  0.950  0.346  0.214  1.000
  Li2  Li1+  0.350  0.746  0.014  1.000
  Li2  Li1+  0.150  0.146  0.214  1.000
  Li2  Li1+  0.750  0.146  0.814  1.000
  Li2  Li1+  0.950  0.346  0.414  1.000
  Li2  Li1+  0.350  0.546  0.814  1.000
  Li2  Li1+  0.350  0.146  0.414  1.000
  Li2  Li1+  0.350  0.346  0.214  1.000
  Li2  Li1+  0.750  0.546  0.014  1.000
  Li2  Li1+  0.550  0.346  0.614  1.000
  Li2  Li1+  0.750  0.746  0.814  1.000
  Li2  Li1+  0.950  0.346  0.614  1.000
  Li2  Li1+  0.750  0.146  0.014  1.000
  Li2  Li1+  0.750  0.346  0.014  1.000
  Li2  Li1+  0.350  0.946  0.214  1.000
  Li2  Li1+  0.550  0.146  0.214  1.000
  Li2  Li1+  0.350  0.546  0.414  1.000
  Li2  Li1+  0.750  0.946  0.014  1.000
  Li2  Li1+  0.950  0.346  0.814  1.000
  Li2  Li1+  0.150  0.546  0.414  1.000
  Li2  Li1+  0.750  0.546  0.214  1.000
  Li2  Li1+  0.550  0.346  0.814  1.000
  Li2  Li1+  0.350  0.746  0.614  1.000
  Li2  Li1+  0.750  0.946  0.214  1.000
  Li2  Li1+  0.950  0.546  0.014  1.000
  Li2  Li1+  0.150  0.546  0.614  1.000
  Li2  Li1+  0.550  0.746  0.614  1.000
  Li2  Li1+  0.950  0.546  0.214  1.000
  Li2  Li1+  0.550  0.146  0.414  1.000
  Li2  Li1+  0.350  0.346  0.414  1.000
  Li2  Li1+  0.750  0.146  0.214  1.000
  Li2  Li1+  0.750  0.546  0.414  1.000
  Li2  Li1+  0.150  0.746  0.414  1.000
  Li2  Li1+  0.550  0.546  0.014  1.000
  Li2  Li1+  0.750  0.946  0.414  1.000
  Li2  Li1+  0.550  0.946  0.614  1.000
  Li2  Li1+  0.350  0.546  0.614  1.000
  Li2  Li1+  0.350  0.146  0.614  1.000
  Li2  Li1+  0.350  0.746  0.214  1.000
  Li2  Li1+  0.950  0.546  0.414  1.000
  Li2  Li1+  0.350  0.146  0.014  1.000
  Li2  Li1+  0.150  0.346  0.814  1.000
  Li2  Li1+  0.750  0.946  0.614  1.000
  Li2  Li1+  0.150  0.946  0.614  1.000
  Li2  Li1+  0.950  0.546  0.614  1.000
  Li2  Li1+  0.350  0.946  0.414  1.000
  Li2  Li1+  0.150  0.746  0.014  1.000
  Li2  Li1+  0.550  0.546  0.214  1.000
  Li2  Li1+  0.150  0.546  0.014  1.000
  Li2  Li1+  0.550  0.146  0.614  1.000
  Li2  Li1+  0.150  0.946  0.214  1.000
  Li2  Li1+  0.950  0.546  0.814  1.000
  Li2  Li1+  0.150  0.946  0.414  1.000
  Li2  Li1+  0.350  0.346  0.614  1.000
  Li2  Li1+  0.750  0.946  0.814  1.000
  Li2  Li1+  0.750  0.546  0.614  1.000
  Li2  Li1+  0.950  0.746  0.014  1.000
  Li2  Li1+  0.150  0.146  0.614  1.000
  Li2  Li1+  0.150  0.346  0.414  1.000
  Li2  Li1+  0.950  0.146  0.014  1.000
  Li2  Li1+  0.550  0.546  0.414  1.000
  Li2  Li1+  0.550  0.946  0.214  1.000
  Li2  Li1+  0.750  0.546  0.814  1.000
  Li2  Li1+  0.550  0.146  0.814  1.000
  Li2  Li1+  0.950  0.746  0.214  1.000
  Li2  Li1+  0.750  0.346  0.214  1.000
  Li2  Li1+  0.750  0.146  0.414  1.000
  Li2  Li1+  0.950  0.746  0.414  1.000
  Li2  Li1+  0.350  0.146  0.814  1.000
  Li2  Li1+  0.550  0.546  0.614  1.000
  Li2  Li1+  0.350  0.946  0.614  1.000
  Li2  Li1+  0.150  0.346  0.614  1.000
  Li2  Li1+  0.150  0.546  0.214  1.000
  Li2  Li1+  0.150  0.746  0.614  1.000
  Li2  Li1+  0.950  0.146  0.214  1.000
  Li2  Li1+  0.350  0.346  0.814  1.000
  Li2  Li1+  0.350  0.546  0.214  1.000
  Li2  Li1+  0.950  0.746  0.614  1.000
  Li2  Li1+  0.750  0.746  0.014  1.000
  Li2  Li1+  0.350  0.746  0.814  1.000
  Li2  Li1+  0.950  0.146  0.414  1.000
  Li2  Li1+  0.550  0.946  0.814  1.000
  Li2  Li1+  0.550  0.546  0.814  1.000
  Li2  Li1+  0.750  0.346  0.414  1.000
  Li2  Li1+  0.950  0.746  0.814  1.000
  Li2  Li1+  0.550  0.346  0.014  1.000
  Li2  Li1+  0.350  0.146  0.214  1.000
  Li2  Li1+  0.150  0.146  0.814  1.000
  Li2  Li1+  0.950  0.946  0.014  1.000
  Li2  Li1+  0.150  0.946  0.014  1.000
  Li2  Li1+  0.750  0.746  0.214  1.000
  Li2  Li1+  0.550  0.746  0.014  1.000
  Li2  Li1+  0.750  0.146  0.614  1.000
  Li2  Li1+  0.950  0.146  0.614  1.000
  Li2  Li1+  0.950  0.946  0.214  1.000
  Li2  Li1+  0.550  0.946  0.014  1.000
  Li2  Li1+  0.750  0.346  0.614  1.000
  Li2  Li1+  0.350  0.546  0.014  1.000
  Li2  Li1+  0.950  0.146  0.814  1.000
  Li2  Li1+  0.350  0.946  0.814  1.000
  Li2  Li1+  0.950  0.946  0.414  1.000
  Li2  Li1+  0.550  0.346  0.214  1.000
  Li2  Li1+  0.150  0.346  0.214  1.000
  Li2  Li1+  0.550  0.746  0.214  1.000
  Li2  Li1+  0.550  0.946  0.414  1.000
  Li2  Li1+  0.350  0.346  0.014  1.000
  Li2  Li1+  0.950  0.946  0.614  1.000
  Li2  Li1+  0.350  0.946  0.014  1.000
  Li2  Li1+  0.150  0.546  0.814  1.000
  Li2  Li1+  0.950  0.946  0.814  1.000
  Li2  Li1+  0.350  0.746  0.414  1.000
  Li2  Li1+  0.150  0.746  0.814  1.000
  Li2  Li1+  0.750  0.746  0.414  1.000
  Li2  Li1+  0.150  0.746  0.214  1.000
  Li2  Li1+  0.550  0.746  0.414  1.000
  Li2  Li1+  0.150  0.946  0.814  1.000
  Li2  Li1+  0.150  0.346  0.014  1.000
  Li3  Li1+  0.550  0.146  0.832  1.000
  Li3  Li1+  0.150  0.746  0.432  1.000
  Li3  Li1+  0.350  0.346  0.432  1.000
  Li3  Li1+  0.950  0.546  0.232  1.000
  Li3  Li1+  0.350  0.546  0.432  1.000
  Li3  Li1+  0.350  0.146  0.832  1.000
  Li3  Li1+  0.750  0.546  0.232  1.000
  Li3  Li1+  0.550  0.746  0.832  1.000
  Li3  Li1+  0.550  0.546  0.032  1.000
  Li3  Li1+  0.350  0.546  0.832  1.000
  Li3  Li1+  0.750  0.746  0.432  1.000
  Li3  Li1+  0.950  0.146  0.232  1.000
  Li3  Li1+  0.750  0.346  0.232  1.000
  Li3  Li1+  0.750  0.146  0.232  1.000
  Li3  Li1+  0.150  0.546  0.232  1.000
  Li3  Li1+  0.150  0.346  0.832  1.000
  Li3  Li1+  0.550  0.146  0.032  1.000
  Li3  Li1+  0.950  0.546  0.432  1.000
  Li3  Li1+  0.750  0.746  0.632  1.000
  Li3  Li1+  0.550  0.946  0.832  1.000
  Li3  Li1+  0.350  0.146  0.032  1.000
  Li3  Li1+  0.950  0.146  0.432  1.000
  Li3  Li1+  0.550  0.346  0.032  1.000
  Li3  Li1+  0.750  0.546  0.432  1.000
  Li3  Li1+  0.950  0.546  0.632  1.000
  Li3  Li1+  0.150  0.546  0.432  1.000
  Li3  Li1+  0.350  0.746  0.832  1.000
  Li3  Li1+  0.550  0.546  0.232  1.000
  Li3  Li1+  0.750  0.346  0.432  1.000
  Li3  Li1+  0.350  0.146  0.432  1.000
  Li3  Li1+  0.350  0.946  0.432  1.000
  Li3  Li1+  0.350  0.746  0.232  1.000
  Li3  Li1+  0.350  0.346  0.632  1.000
  Li3  Li1+  0.950  0.546  0.832  1.000
  Li3  Li1+  0.950  0.146  0.632  1.000
  Li3  Li1+  0.150  0.946  0.032  1.000
  Li3  Li1+  0.750  0.746  0.832  1.000
  Li3  Li1+  0.750  0.146  0.832  1.000
  Li3  Li1+  0.550  0.746  0.632  1.000
  Li3  Li1+  0.550  0.946  0.632  1.000
  Li3  Li1+  0.950  0.746  0.032  1.000
  Li3  Li1+  0.550  0.546  0.432  1.000
  Li3  Li1+  0.350  0.346  0.032  1.000
  Li3  Li1+  0.550  0.346  0.232  1.000
  Li3  Li1+  0.950  0.146  0.832  1.000
  Li3  Li1+  0.550  0.146  0.232  1.000
  Li3  Li1+  0.150  0.946  0.432  1.000
  Li3  Li1+  0.150  0.746  0.232  1.000
  Li3  Li1+  0.750  0.946  0.032  1.000
  Li3  Li1+  0.750  0.346  0.632  1.000
  Li3  Li1+  0.150  0.746  0.632  1.000
  Li3  Li1+  0.950  0.746  0.232  1.000
  Li3  Li1+  0.150  0.346  0.432  1.000
  Li3  Li1+  0.750  0.546  0.632  1.000
  Li3  Li1+  0.350  0.746  0.632  1.000
  Li3  Li1+  0.550  0.546  0.632  1.000
  Li3  Li1+  0.950  0.746  0.432  1.000
  Li3  Li1+  0.750  0.346  0.032  1.000
  Li3  Li1+  0.150  0.146  0.432  1.000
  Li3  Li1+  0.150  0.946  0.632  1.000
  Li3  Li1+  0.750  0.946  0.232  1.000
  Li3  Li1+  0.150  0.946  0.832  1.000
  Li3  Li1+  0.750  0.546  0.832  1.000
  Li3  Li1+  0.350  0.346  0.832  1.000
  Li3  Li1+  0.950  0.346  0.032  1.000
  Li3  Li1+  0.350  0.946  0.032  1.000
  Li3  Li1+  0.550  0.146  0.432  1.000
  Li3  Li1+  0.350  0.546  0.632  1.000
  Li3  Li1+  0.150  0.146  0.232  1.000
  Li3  Li1+  0.950  0.746  0.632  1.000
  Li3  Li1+  0.350  0.946  0.632  1.000
  Li3  Li1+  0.550  0.346  0.432  1.000
  Li3  Li1+  0.750  0.946  0.432  1.000
  Li3  Li1+  0.150  0.346  0.032  1.000
  Li3  Li1+  0.350  0.146  0.632  1.000
  Li3  Li1+  0.550  0.546  0.832  1.000
  Li3  Li1+  0.950  0.346  0.232  1.000
  Li3  Li1+  0.950  0.746  0.832  1.000
  Li3  Li1+  0.750  0.346  0.832  1.000
  Li3  Li1+  0.750  0.146  0.432  1.000
  Li3  Li1+  0.350  0.746  0.032  1.000
  Li3  Li1+  0.550  0.946  0.032  1.000
  Li3  Li1+  0.750  0.746  0.032  1.000
  Li3  Li1+  0.350  0.146  0.232  1.000
  Li3  Li1+  0.950  0.946  0.032  1.000
  Li3  Li1+  0.350  0.346  0.232  1.000
  Li3  Li1+  0.950  0.346  0.432  1.000
  Li3  Li1+  0.150  0.746  0.032  1.000
  Li3  Li1+  0.550  0.746  0.032  1.000
  Li3  Li1+  0.750  0.946  0.632  1.000
  Li3  Li1+  0.550  0.946  0.432  1.000
  Li3  Li1+  0.350  0.546  0.032  1.000
  Li3  Li1+  0.950  0.946  0.232  1.000
  Li3  Li1+  0.550  0.346  0.632  1.000
  Li3  Li1+  0.150  0.946  0.232  1.000
  Li3  Li1+  0.750  0.146  0.032  1.000
  Li3  Li1+  0.150  0.146  0.032  1.000
  Li3  Li1+  0.950  0.346  0.632  1.000
  Li3  Li1+  0.550  0.146  0.632  1.000
  Li3  Li1+  0.550  0.946  0.232  1.000
  Li3  Li1+  0.950  0.946  0.432  1.000
  Li3  Li1+  0.150  0.546  0.632  1.000
  Li3  Li1+  0.750  0.746  0.232  1.000
  Li3  Li1+  0.350  0.946  0.832  1.000
  Li3  Li1+  0.550  0.746  0.232  1.000
  Li3  Li1+  0.150  0.746  0.832  1.000
  Li3  Li1+  0.150  0.146  0.832  1.000
  Li3  Li1+  0.750  0.946  0.832  1.000
  Li3  Li1+  0.150  0.546  0.032  1.000
  Li3  Li1+  0.950  0.946  0.632  1.000
  Li3  Li1+  0.750  0.546  0.032  1.000
  Li3  Li1+  0.950  0.346  0.832  1.000
  Li3  Li1+  0.150  0.146  0.632  1.000
  Li3  Li1+  0.750  0.146  0.632  1.000
  Li3  Li1+  0.950  0.946  0.832  1.000
  Li3  Li1+  0.150  0.346  0.232  1.000
  Li3  Li1+  0.550  0.346  0.832  1.000
  Li3  Li1+  0.350  0.946  0.232  1.000
  Li3  Li1+  0.550  0.746  0.432  1.000
  Li3  Li1+  0.150  0.346  0.632  1.000
  Li3  Li1+  0.350  0.546  0.232  1.000
  Li3  Li1+  0.950  0.546  0.032  1.000
  Li3  Li1+  0.950  0.146  0.032  1.000
  Li3  Li1+  0.350  0.746  0.432  1.000
  Li3  Li1+  0.150  0.546  0.832  1.000
  Li4  Li1+  0.096  0.900  0.646  1.000
  Li4  Li1+  0.496  0.500  0.246  1.000
  Li4  Li1+  0.696  0.100  0.246  1.000
  Li4  Li1+  0.296  0.100  0.046  1.000
  Li4  Li1+  0.096  0.700  0.246  1.000
  Li4  Li1+  0.096  0.300  0.246  1.000
  Li4  Li1+  0.696  0.900  0.646  1.000
  Li4  Li1+  0.696  0.500  0.446  1.000
  Li4  Li1+  0.096  0.700  0.046  1.000
  Li4  Li1+  0.896  0.500  0.846  1.000
  Li4  Li1+  0.296  0.300  0.646  1.000
  Li4  Li1+  0.696  0.300  0.646  1.000
  Li4  Li1+  0.096  0.100  0.446  1.000
  Li4  Li1+  0.096  0.500  0.846  1.000
  Li4  Li1+  0.896  0.300  0.046  1.000
  Li4  Li1+  0.696  0.100  0.646  1.000
  Li4  Li1+  0.496  0.700  0.846  1.000
  Li4  Li1+  0.896  0.700  0.046  1.000
  Li4  Li1+  0.496  0.100  0.646  1.000
  Li4  Li1+  0.496  0.500  0.446  1.000
  Li4  Li1+  0.496  0.900  0.046  1.000
  Li4  Li1+  0.296  0.500  0.646  1.000
  Li4  Li1+  0.696  0.700  0.446  1.000
  Li4  Li1+  0.496  0.300  0.446  1.000
  Li4  Li1+  0.296  0.900  0.446  1.000
  Li4  Li1+  0.096  0.900  0.846  1.000
  Li4  Li1+  0.896  0.300  0.246  1.000
  Li4  Li1+  0.296  0.700  0.046  1.000
  Li4  Li1+  0.296  0.900  0.046  1.000
  Li4  Li1+  0.696  0.900  0.846  1.000
  Li4  Li1+  0.896  0.700  0.246  1.000
  Li4  Li1+  0.496  0.100  0.046  1.000
  Li4  Li1+  0.296  0.700  0.446  1.000
  Li4  Li1+  0.696  0.700  0.646  1.000
  Li4  Li1+  0.296  0.700  0.246  1.000
  Li4  Li1+  0.496  0.500  0.646  1.000
  Li4  Li1+  0.096  0.900  0.246  1.000
  Li4  Li1+  0.896  0.700  0.446  1.000
  Li4  Li1+  0.096  0.700  0.646  1.000
  Li4  Li1+  0.896  0.300  0.446  1.000
  Li4  Li1+  0.696  0.300  0.846  1.000
  Li4  Li1+  0.896  0.100  0.046  1.000
  Li4  Li1+  0.296  0.500  0.846  1.000
  Li4  Li1+  0.296  0.300  0.246  1.000
  Li4  Li1+  0.696  0.500  0.646  1.000
  Li4  Li1+  0.496  0.300  0.646  1.000
  Li4  Li1+  0.296  0.300  0.846  1.000
  Li4  Li1+  0.096  0.300  0.446  1.000
  Li4  Li1+  0.296  0.500  0.446  1.000
  Li4  Li1+  0.496  0.100  0.846  1.000
  Li4  Li1+  0.096  0.300  0.646  1.000
  Li4  Li1+  0.096  0.900  0.446  1.000
  Li4  Li1+  0.896  0.300  0.646  1.000
  Li4  Li1+  0.896  0.700  0.646  1.000
  Li4  Li1+  0.096  0.100  0.846  1.000
  Li4  Li1+  0.296  0.100  0.446  1.000
  Li4  Li1+  0.096  0.900  0.046  1.000
  Li4  Li1+  0.296  0.100  0.846  1.000
  Li4  Li1+  0.096  0.500  0.446  1.000
  Li4  Li1+  0.496  0.900  0.246  1.000
  Li4  Li1+  0.696  0.700  0.846  1.000
  Li4  Li1+  0.496  0.500  0.846  1.000
  Li4  Li1+  0.696  0.500  0.846  1.000
  Li4  Li1+  0.896  0.700  0.846  1.000
  Li4  Li1+  0.896  0.300  0.846  1.000
  Li4  Li1+  0.896  0.100  0.246  1.000
  Li4  Li1+  0.096  0.100  0.046  1.000
  Li4  Li1+  0.696  0.100  0.446  1.000
  Li4  Li1+  0.096  0.500  0.646  1.000
  Li4  Li1+  0.496  0.300  0.846  1.000
  Li4  Li1+  0.296  0.900  0.646  1.000
  Li4  Li1+  0.896  0.900  0.046  1.000
  Li4  Li1+  0.496  0.100  0.246  1.000
  Li4  Li1+  0.696  0.300  0.246  1.000
  Li4  Li1+  0.096  0.300  0.046  1.000
  Li4  Li1+  0.896  0.500  0.046  1.000
  Li4  Li1+  0.096  0.100  0.246  1.000
  Li4  Li1+  0.696  0.900  0.046  1.000
  Li4  Li1+  0.496  0.700  0.046  1.000
  Li4  Li1+  0.896  0.100  0.446  1.000
  Li4  Li1+  0.696  0.500  0.046  1.000
  Li4  Li1+  0.696  0.100  0.846  1.000
  Li4  Li1+  0.096  0.100  0.646  1.000
  Li4  Li1+  0.896  0.900  0.246  1.000
  Li4  Li1+  0.296  0.500  0.046  1.000
  Li4  Li1+  0.496  0.300  0.046  1.000
  Li4  Li1+  0.296  0.300  0.446  1.000
  Li4  Li1+  0.096  0.700  0.446  1.000
  Li4  Li1+  0.696  0.100  0.046  1.000
  Li4  Li1+  0.896  0.500  0.246  1.000
  Li4  Li1+  0.696  0.700  0.046  1.000
  Li4  Li1+  0.496  0.900  0.446  1.000
  Li4  Li1+  0.296  0.100  0.246  1.000
  Li4  Li1+  0.896  0.900  0.446  1.000
  Li4  Li1+  0.696  0.900  0.246  1.000
  Li4  Li1+  0.296  0.900  0.246  1.000
  Li4  Li1+  0.896  0.100  0.646  1.000
  Li4  Li1+  0.496  0.500  0.046  1.000
  Li4  Li1+  0.496  0.700  0.246  1.000
  Li4  Li1+  0.496  0.900  0.646  1.000
  Li4  Li1+  0.296  0.700  0.846  1.000
  Li4  Li1+  0.496  0.900  0.846  1.000
  Li4  Li1+  0.096  0.700  0.846  1.000
  Li4  Li1+  0.496  0.100  0.446  1.000
  Li4  Li1+  0.696  0.500  0.246  1.000
  Li4  Li1+  0.696  0.300  0.446  1.000
  Li4  Li1+  0.896  0.900  0.646  1.000
  Li4  Li1+  0.096  0.500  0.246  1.000
  Li4  Li1+  0.696  0.900  0.446  1.000
  Li4  Li1+  0.096  0.300  0.846  1.000
  Li4  Li1+  0.096  0.500  0.046  1.000
  Li4  Li1+  0.896  0.500  0.446  1.000
  Li4  Li1+  0.896  0.900  0.846  1.000
  Li4  Li1+  0.896  0.100  0.846  1.000
  Li4  Li1+  0.496  0.300  0.246  1.000
  Li4  Li1+  0.296  0.300  0.046  1.000
  Li4  Li1+  0.696  0.700  0.246  1.000
  Li4  Li1+  0.696  0.300  0.046  1.000
  Li4  Li1+  0.496  0.700  0.446  1.000
  Li4  Li1+  0.296  0.900  0.846  1.000
  Li4  Li1+  0.296  0.700  0.646  1.000
  Li4  Li1+  0.296  0.500  0.246  1.000
  Li4  Li1+  0.896  0.500  0.646  1.000
  Li4  Li1+  0.296  0.100  0.646  1.000
  Li4  Li1+  0.496  0.700  0.646  1.000
  Li5  Li1+  0.050  0.650  0.659  1.000
  Li5  Li1+  0.450  0.250  0.659  1.000
  Li5  Li1+  0.050  0.050  0.659  1.000
  Li5  Li1+  0.050  0.050  0.259  1.000
  Li5  Li1+  0.850  0.050  0.259  1.000
  Li5  Li1+  0.250  0.850  0.059  1.000
  Li5  Li1+  0.050  0.250  0.859  1.000
  Li5  Li1+  0.650  0.050  0.459  1.000
  Li5  Li1+  0.450  0.850  0.459  1.000
  Li5  Li1+  0.850  0.650  0.259  1.000
  Li5  Li1+  0.850  0.250  0.659  1.000
  Li5  Li1+  0.250  0.850  0.859  1.000
  Li5  Li1+  0.450  0.850  0.859  1.000
  Li5  Li1+  0.250  0.650  0.059  1.000
  Li5  Li1+  0.050  0.650  0.059  1.000
  Li5  Li1+  0.250  0.050  0.659  1.000
  Li5  Li1+  0.450  0.450  0.659  1.000
  Li5  Li1+  0.250  0.250  0.859  1.000
  Li5  Li1+  0.850  0.650  0.459  1.000
  Li5  Li1+  0.650  0.850  0.259  1.000
  Li5  Li1+  0.650  0.650  0.259  1.000
  Li5  Li1+  0.650  0.450  0.459  1.000
  Li5  Li1+  0.450  0.250  0.059  1.000
  Li5  Li1+  0.850  0.050  0.459  1.000
  Li5  Li1+  0.450  0.050  0.459  1.000
  Li5  Li1+  0.050  0.650  0.459  1.000
  Li5  Li1+  0.250  0.850  0.459  1.000
  Li5  Li1+  0.450  0.650  0.659  1.000
  Li5  Li1+  0.850  0.250  0.859  1.000
  Li5  Li1+  0.050  0.650  0.259  1.000
  Li5  Li1+  0.450  0.250  0.859  1.000
  Li5  Li1+  0.650  0.050  0.859  1.000
  Li5  Li1+  0.650  0.250  0.259  1.000
  Li5  Li1+  0.050  0.450  0.659  1.000
  Li5  Li1+  0.650  0.850  0.459  1.000
  Li5  Li1+  0.850  0.650  0.659  1.000
  Li5  Li1+  0.650  0.250  0.859  1.000
  Li5  Li1+  0.050  0.850  0.659  1.000
  Li5  Li1+  0.250  0.250  0.459  1.000
  Li5  Li1+  0.050  0.250  0.659  1.000
  Li5  Li1+  0.850  0.450  0.059  1.000
  Li5  Li1+  0.050  0.450  0.259  1.000
  Li5  Li1+  0.450  0.450  0.859  1.000
  Li5  Li1+  0.850  0.050  0.659  1.000
  Li5  Li1+  0.250  0.250  0.059  1.000
  Li5  Li1+  0.050  0.450  0.459  1.000
  Li5  Li1+  0.050  0.850  0.459  1.000
  Li5  Li1+  0.250  0.650  0.259  1.000
  Li5  Li1+  0.650  0.050  0.259  1.000
  Li5  Li1+  0.850  0.650  0.859  1.000
  Li5  Li1+  0.250  0.450  0.859  1.000
  Li5  Li1+  0.650  0.650  0.459  1.000
  Li5  Li1+  0.650  0.450  0.659  1.000
  Li5  Li1+  0.450  0.250  0.259  1.000
  Li5  Li1+  0.050  0.450  0.059  1.000
  Li5  Li1+  0.850  0.450  0.259  1.000
  Li5  Li1+  0.450  0.450  0.059  1.000
  Li5  Li1+  0.850  0.050  0.859  1.000
  Li5  Li1+  0.250  0.650  0.659  1.000
  Li5  Li1+  0.250  0.450  0.059  1.000
  Li5  Li1+  0.850  0.850  0.059  1.000
  Li5  Li1+  0.250  0.650  0.859  1.000
  Li5  Li1+  0.650  0.250  0.059  1.000
  Li5  Li1+  0.450  0.650  0.059  1.000
  Li5  Li1+  0.650  0.850  0.659  1.000
  Li5  Li1+  0.450  0.050  0.659  1.000
  Li5  Li1+  0.050  0.050  0.059  1.000
  Li5  Li1+  0.250  0.650  0.459  1.000
  Li5  Li1+  0.050  0.250  0.459  1.000
  Li5  Li1+  0.450  0.050  0.059  1.000
  Li5  Li1+  0.250  0.050  0.459  1.000
  Li5  Li1+  0.850  0.850  0.259  1.000
  Li5  Li1+  0.650  0.650  0.659  1.000
  Li5  Li1+  0.650  0.050  0.659  1.000
  Li5  Li1+  0.650  0.450  0.059  1.000
  Li5  Li1+  0.850  0.450  0.459  1.000
  Li5  Li1+  0.050  0.050  0.459  1.000
  Li5  Li1+  0.650  0.250  0.459  1.000
  Li5  Li1+  0.050  0.050  0.859  1.000
  Li5  Li1+  0.250  0.850  0.259  1.000
  Li5  Li1+  0.250  0.850  0.659  1.000
  Li5  Li1+  0.050  0.650  0.859  1.000
  Li5  Li1+  0.850  0.250  0.059  1.000
  Li5  Li1+  0.650  0.850  0.859  1.000
  Li5  Li1+  0.650  0.450  0.859  1.000
  Li5  Li1+  0.250  0.450  0.659  1.000
  Li5  Li1+  0.850  0.850  0.459  1.000
  Li5  Li1+  0.450  0.650  0.259  1.000
  Li5  Li1+  0.450  0.850  0.059  1.000
  Li5  Li1+  0.050  0.850  0.259  1.000
  Li5  Li1+  0.450  0.450  0.259  1.000
  Li5  Li1+  0.850  0.450  0.659  1.000
  Li5  Li1+  0.050  0.850  0.059  1.000
  Li5  Li1+  0.250  0.450  0.459  1.000
  Li5  Li1+  0.250  0.050  0.859  1.000
  Li5  Li1+  0.450  0.250  0.459  1.000
  Li5  Li1+  0.450  0.650  0.859  1.000
  Li5  Li1+  0.250  0.250  0.659  1.000
  Li5  Li1+  0.650  0.650  0.859  1.000
  Li5  Li1+  0.850  0.850  0.659  1.000
  Li5  Li1+  0.450  0.050  0.859  1.000
  Li5  Li1+  0.850  0.250  0.259  1.000
  Li5  Li1+  0.850  0.050  0.059  1.000
  Li5  Li1+  0.050  0.250  0.259  1.000
  Li5  Li1+  0.850  0.450  0.859  1.000
  Li5  Li1+  0.050  0.250  0.059  1.000
  Li5  Li1+  0.250  0.450  0.259  1.000
  Li5  Li1+  0.250  0.050  0.259  1.000
  Li5  Li1+  0.650  0.450  0.259  1.000
  Li5  Li1+  0.450  0.650  0.459  1.000
  Li5  Li1+  0.850  0.850  0.859  1.000
  Li5  Li1+  0.450  0.850  0.259  1.000
  Li5  Li1+  0.250  0.050  0.059  1.000
  Li5  Li1+  0.050  0.450  0.859  1.000
  Li5  Li1+  0.450  0.050  0.259  1.000
  Li5  Li1+  0.650  0.650  0.059  1.000
  Li5  Li1+  0.650  0.050  0.059  1.000
  Li5  Li1+  0.250  0.250  0.259  1.000
  Li5  Li1+  0.450  0.450  0.459  1.000
  Li5  Li1+  0.050  0.850  0.859  1.000
  Li5  Li1+  0.850  0.650  0.059  1.000
  Li5  Li1+  0.850  0.250  0.459  1.000
  Li5  Li1+  0.650  0.250  0.659  1.000
  Li5  Li1+  0.650  0.850  0.059  1.000
  Li5  Li1+  0.450  0.850  0.659  1.000
  Li6  Li1+  0.146  0.550  0.850  1.000
  Li6  Li1+  0.146  0.150  0.050  1.000
  Li6  Li1+  0.946  0.750  0.450  1.000
  Li6  Li1+  0.546  0.350  0.250  1.000
  Li6  Li1+  0.746  0.150  0.050  1.000
  Li6  Li1+  0.346  0.350  0.450  1.000
  Li6  Li1+  0.946  0.150  0.850  1.000
  Li6  Li1+  0.746  0.750  0.050  1.000
  Li6  Li1+  0.946  0.550  0.050  1.000
  Li6  Li1+  0.746  0.350  0.850  1.000
  Li6  Li1+  0.746  0.750  0.850  1.000
  Li6  Li1+  0.746  0.350  0.050  1.000
  Li6  Li1+  0.346  0.950  0.450  1.000
  Li6  Li1+  0.746  0.550  0.450  1.000
  Li6  Li1+  0.746  0.950  0.850  1.000
  Li6  Li1+  0.346  0.550  0.850  1.000
  Li6  Li1+  0.346  0.750  0.850  1.000
  Li6  Li1+  0.546  0.950  0.850  1.000
  Li6  Li1+  0.546  0.750  0.650  1.000
  Li6  Li1+  0.546  0.150  0.250  1.000
  Li6  Li1+  0.946  0.750  0.650  1.000
  Li6  Li1+  0.346  0.750  0.050  1.000
  Li6  Li1+  0.546  0.550  0.050  1.000
  Li6  Li1+  0.946  0.550  0.250  1.000
  Li6  Li1+  0.346  0.950  0.850  1.000
  Li6  Li1+  0.346  0.150  0.850  1.000
  Li6  Li1+  0.146  0.950  0.050  1.000
  Li6  Li1+  0.546  0.950  0.250  1.000
  Li6  Li1+  0.546  0.550  0.850  1.000
  Li6  Li1+  0.746  0.350  0.450  1.000
  Li6  Li1+  0.546  0.150  0.850  1.000
  Li6  Li1+  0.946  0.350  0.050  1.000
  Li6  Li1+  0.746  0.950  0.050  1.000
  Li6  Li1+  0.946  0.150  0.050  1.000
  Li6  Li1+  0.746  0.750  0.250  1.000
  Li6  Li1+  0.746  0.150  0.450  1.000
  Li6  Li1+  0.946  0.750  0.850  1.000
  Li6  Li1+  0.546  0.950  0.050  1.000
  Li6  Li1+  0.146  0.150  0.250  1.000
  Li6  Li1+  0.346  0.550  0.650  1.000
  Li6  Li1+  0.146  0.350  0.450  1.000
  Li6  Li1+  0.146  0.350  0.650  1.000
  Li6  Li1+  0.146  0.550  0.050  1.000
  Li6  Li1+  0.946  0.550  0.450  1.000
  Li6  Li1+  0.546  0.350  0.450  1.000
  Li6  Li1+  0.146  0.950  0.450  1.000
  Li6  Li1+  0.146  0.550  0.250  1.000
  Li6  Li1+  0.746  0.550  0.650  1.000
  Li6  Li1+  0.346  0.550  0.050  1.000
  Li6  Li1+  0.346  0.750  0.250  1.000
  Li6  Li1+  0.946  0.950  0.050  1.000
  Li6  Li1+  0.946  0.350  0.250  1.000
  Li6  Li1+  0.146  0.750  0.050  1.000
  Li6  Li1+  0.746  0.550  0.050  1.000
  Li6  Li1+  0.546  0.750  0.050  1.000
  Li6  Li1+  0.346  0.150  0.650  1.000
  Li6  Li1+  0.146  0.950  0.250  1.000
  Li6  Li1+  0.746  0.950  0.250  1.000
  Li6  Li1+  0.346  0.950  0.250  1.000
  Li6  Li1+  0.546  0.550  0.250  1.000
  Li6  Li1+  0.946  0.150  0.250  1.000
  Li6  Li1+  0.946  0.550  0.650  1.000
  Li6  Li1+  0.146  0.550  0.450  1.000
  Li6  Li1+  0.946  0.950  0.250  1.000
  Li6  Li1+  0.746  0.150  0.250  1.000
  Li6  Li1+  0.546  0.150  0.450  1.000
  Li6  Li1+  0.346  0.350  0.650  1.000
  Li6  Li1+  0.346  0.350  0.250  1.000
  Li6  Li1+  0.746  0.150  0.850  1.000
  Li6  Li1+  0.146  0.150  0.450  1.000
  Li6  Li1+  0.746  0.750  0.450  1.000
  Li6  Li1+  0.946  0.350  0.450  1.000
  Li6  Li1+  0.146  0.950  0.850  1.000
  Li6  Li1+  0.546  0.950  0.450  1.000
  Li6  Li1+  0.146  0.750  0.850  1.000
  Li6  Li1+  0.746  0.350  0.650  1.000
  Li6  Li1+  0.146  0.350  0.050  1.000
  Li6  Li1+  0.746  0.950  0.450  1.000
  Li6  Li1+  0.946  0.550  0.850  1.000
  Li6  Li1+  0.546  0.350  0.650  1.000
  Li6  Li1+  0.946  0.950  0.450  1.000
  Li6  Li1+  0.146  0.150  0.850  1.000
  Li6  Li1+  0.546  0.750  0.250  1.000
  Li6  Li1+  0.146  0.950  0.650  1.000
  Li6  Li1+  0.546  0.350  0.050  1.000
  Li6  Li1+  0.146  0.350  0.250  1.000
  Li6  Li1+  0.946  0.150  0.450  1.000
  Li6  Li1+  0.146  0.350  0.850  1.000
  Li6  Li1+  0.346  0.950  0.650  1.000
  Li6  Li1+  0.546  0.950  0.650  1.000
  Li6  Li1+  0.746  0.550  0.850  1.000
  Li6  Li1+  0.946  0.350  0.650  1.000
  Li6  Li1+  0.546  0.550  0.450  1.000
  Li6  Li1+  0.146  0.750  0.250  1.000
  Li6  Li1+  0.546  0.150  0.050  1.000
  Li6  Li1+  0.946  0.950  0.650  1.000
  Li6  Li1+  0.946  0.750  0.050  1.000
  Li6  Li1+  0.746  0.550  0.250  1.000
  Li6  Li1+  0.346  0.150  0.450  1.000
  Li6  Li1+  0.346  0.950  0.050  1.000
  Li6  Li1+  0.746  0.750  0.650  1.000
  Li6  Li1+  0.146  0.750  0.650  1.000
  Li6  Li1+  0.746  0.350  0.250  1.000
  Li6  Li1+  0.346  0.550  0.250  1.000
  Li6  Li1+  0.346  0.150  0.050  1.000
  Li6  Li1+  0.546  0.750  0.850  1.000
  Li6  Li1+  0.346  0.750  0.450  1.000
  Li6  Li1+  0.546  0.750  0.450  1.000
  Li6  Li1+  0.746  0.950  0.650  1.000
  Li6  Li1+  0.946  0.950  0.850  1.000
  Li6  Li1+  0.346  0.350  0.050  1.000
  Li6  Li1+  0.146  0.750  0.450  1.000
  Li6  Li1+  0.946  0.150  0.650  1.000
  Li6  Li1+  0.146  0.150  0.650  1.000
  Li6  Li1+  0.546  0.150  0.650  1.000
  Li6  Li1+  0.946  0.750  0.250  1.000
  Li6  Li1+  0.946  0.350  0.850  1.000
  Li6  Li1+  0.346  0.150  0.250  1.000
  Li6  Li1+  0.546  0.350  0.850  1.000
  Li6  Li1+  0.746  0.150  0.650  1.000
  Li6  Li1+  0.346  0.350  0.850  1.000
  Li6  Li1+  0.346  0.550  0.450  1.000
  Li6  Li1+  0.346  0.750  0.650  1.000
  Li6  Li1+  0.146  0.550  0.650  1.000
  Li6  Li1+  0.546  0.550  0.650  1.000
  Li7  Li1+  0.450  0.250  0.478  1.000
  Li7  Li1+  0.650  0.850  0.478  1.000
  Li7  Li1+  0.650  0.650  0.678  1.000
  Li7  Li1+  0.450  0.850  0.478  1.000
  Li7  Li1+  0.250  0.850  0.478  1.000
  Li7  Li1+  0.850  0.250  0.278  1.000
  Li7  Li1+  0.050  0.850  0.678  1.000
  Li7  Li1+  0.850  0.650  0.678  1.000
  Li7  Li1+  0.250  0.650  0.478  1.000
  Li7  Li1+  0.650  0.650  0.078  1.000
  Li7  Li1+  0.050  0.250  0.678  1.000
  Li7  Li1+  0.050  0.450  0.878  1.000
  Li7  Li1+  0.450  0.650  0.878  1.000
  Li7  Li1+  0.050  0.250  0.278  1.000
  Li7  Li1+  0.850  0.450  0.478  1.000
  Li7  Li1+  0.650  0.050  0.678  1.000
  Li7  Li1+  0.450  0.450  0.878  1.000
  Li7  Li1+  0.050  0.050  0.878  1.000
  Li7  Li1+  0.450  0.250  0.078  1.000
  Li7  Li1+  0.050  0.450  0.278  1.000
  Li7  Li1+  0.050  0.850  0.878  1.000
  Li7  Li1+  0.850  0.050  0.478  1.000
  Li7  Li1+  0.250  0.250  0.278  1.000
  Li7  Li1+  0.650  0.250  0.278  1.000
  Li7  Li1+  0.650  0.450  0.078  1.000
  Li7  Li1+  0.850  0.650  0.878  1.000
  Li7  Li1+  0.850  0.250  0.478  1.000
  Li7  Li1+  0.450  0.850  0.278  1.000
  Li7  Li1+  0.650  0.850  0.678  1.000
  Li7  Li1+  0.650  0.250  0.678  1.000
  Li7  Li1+  0.450  0.450  0.278  1.000
  Li7  Li1+  0.450  0.850  0.678  1.000
  Li7  Li1+  0.450  0.050  0.678  1.000
  Li7  Li1+  0.850  0.450  0.678  1.000
  Li7  Li1+  0.050  0.450  0.078  1.000
  Li7  Li1+  0.650  0.650  0.878  1.000
  Li7  Li1+  0.050  0.650  0.278  1.000
  Li7  Li1+  0.450  0.250  0.678  1.000
  Li7  Li1+  0.250  0.850  0.878  1.000
  Li7  Li1+  0.250  0.450  0.078  1.000
  Li7  Li1+  0.050  0.050  0.478  1.000
  Li7  Li1+  0.250  0.450  0.678  1.000
  Li7  Li1+  0.850  0.850  0.078  1.000
  Li7  Li1+  0.250  0.850  0.278  1.000
  Li7  Li1+  0.650  0.450  0.678  1.000
  Li7  Li1+  0.250  0.250  0.678  1.000
  Li7  Li1+  0.050  0.250  0.878  1.000
  Li7  Li1+  0.450  0.650  0.078  1.000
  Li7  Li1+  0.250  0.650  0.678  1.000
  Li7  Li1+  0.650  0.650  0.278  1.000
  Li7  Li1+  0.050  0.850  0.478  1.000
  Li7  Li1+  0.850  0.250  0.678  1.000
  Li7  Li1+  0.850  0.050  0.678  1.000
  Li7  Li1+  0.450  0.050  0.278  1.000
  Li7  Li1+  0.850  0.450  0.878  1.000
  Li7  Li1+  0.250  0.250  0.078  1.000
  Li7  Li1+  0.050  0.250  0.478  1.000
  Li7  Li1+  0.850  0.850  0.278  1.000
  Li7  Li1+  0.650  0.050  0.478  1.000
  Li7  Li1+  0.650  0.250  0.078  1.000
  Li7  Li1+  0.250  0.850  0.078  1.000
  Li7  Li1+  0.250  0.450  0.878  1.000
  Li7  Li1+  0.050  0.250  0.078  1.000
  Li7  Li1+  0.650  0.850  0.878  1.000
  Li7  Li1+  0.250  0.450  0.478  1.000
  Li7  Li1+  0.650  0.850  0.078  1.000
  Li7  Li1+  0.250  0.650  0.278  1.000
  Li7  Li1+  0.450  0.250  0.278  1.000
  Li7  Li1+  0.050  0.650  0.478  1.000
  Li7  Li1+  0.450  0.450  0.478  1.000
  Li7  Li1+  0.650  0.450  0.278  1.000
  Li7  Li1+  0.050  0.050  0.678  1.000
  Li7  Li1+  0.050  0.650  0.878  1.000
  Li7  Li1+  0.850  0.050  0.878  1.000
  Li7  Li1+  0.850  0.650  0.078  1.000
  Li7  Li1+  0.050  0.850  0.078  1.000
  Li7  Li1+  0.850  0.850  0.478  1.000
  Li7  Li1+  0.850  0.250  0.878  1.000
  Li7  Li1+  0.250  0.650  0.878  1.000
  Li7  Li1+  0.450  0.650  0.278  1.000
  Li7  Li1+  0.650  0.050  0.278  1.000
  Li7  Li1+  0.250  0.850  0.678  1.000
  Li7  Li1+  0.250  0.050  0.878  1.000
  Li7  Li1+  0.450  0.250  0.878  1.000
  Li7  Li1+  0.250  0.050  0.078  1.000
  Li7  Li1+  0.050  0.050  0.278  1.000
  Li7  Li1+  0.050  0.650  0.678  1.000
  Li7  Li1+  0.050  0.450  0.678  1.000
  Li7  Li1+  0.650  0.650  0.478  1.000
  Li7  Li1+  0.450  0.050  0.878  1.000
  Li7  Li1+  0.650  0.450  0.878  1.000
  Li7  Li1+  0.050  0.650  0.078  1.000
  Li7  Li1+  0.850  0.050  0.078  1.000
  Li7  Li1+  0.850  0.850  0.678  1.000
  Li7  Li1+  0.050  0.050  0.078  1.000
  Li7  Li1+  0.850  0.650  0.278  1.000
  Li7  Li1+  0.050  0.850  0.278  1.000
  Li7  Li1+  0.850  0.450  0.078  1.000
  Li7  Li1+  0.250  0.050  0.678  1.000
  Li7  Li1+  0.250  0.250  0.478  1.000
  Li7  Li1+  0.650  0.250  0.878  1.000
  Li7  Li1+  0.450  0.850  0.878  1.000
  Li7  Li1+  0.250  0.450  0.278  1.000
  Li7  Li1+  0.650  0.850  0.278  1.000
  Li7  Li1+  0.450  0.650  0.678  1.000
  Li7  Li1+  0.050  0.450  0.478  1.000
  Li7  Li1+  0.450  0.450  0.678  1.000
  Li7  Li1+  0.450  0.650  0.478  1.000
  Li7  Li1+  0.850  0.250  0.078  1.000
  Li7  Li1+  0.250  0.250  0.878  1.000
  Li7  Li1+  0.850  0.850  0.878  1.000
  Li7  Li1+  0.650  0.250  0.478  1.000
  Li7  Li1+  0.650  0.050  0.078  1.000
  Li7  Li1+  0.850  0.650  0.478  1.000
  Li7  Li1+  0.450  0.050  0.478  1.000
  Li7  Li1+  0.450  0.850  0.078  1.000
  Li7  Li1+  0.450  0.050  0.078  1.000
  Li7  Li1+  0.250  0.050  0.278  1.000
  Li7  Li1+  0.650  0.050  0.878  1.000
  Li7  Li1+  0.850  0.450  0.278  1.000
  Li7  Li1+  0.250  0.050  0.478  1.000
  Li7  Li1+  0.450  0.450  0.078  1.000
  Li7  Li1+  0.250  0.650  0.078  1.000
  Li7  Li1+  0.650  0.450  0.478  1.000
  Li7  Li1+  0.850  0.050  0.278  1.000
  Li8  Li1+  0.650  0.850  0.296  1.000
  Li8  Li1+  0.050  0.450  0.296  1.000
  Li8  Li1+  0.050  0.250  0.496  1.000
  Li8  Li1+  0.250  0.850  0.096  1.000
  Li8  Li1+  0.650  0.650  0.696  1.000
  Li8  Li1+  0.850  0.450  0.696  1.000
  Li8  Li1+  0.450  0.450  0.896  1.000
  Li8  Li1+  0.250  0.250  0.096  1.000
  Li8  Li1+  0.450  0.850  0.096  1.000
  Li8  Li1+  0.450  0.450  0.296  1.000
  Li8  Li1+  0.850  0.250  0.696  1.000
  Li8  Li1+  0.250  0.850  0.296  1.000
  Li8  Li1+  0.050  0.850  0.496  1.000
  Li8  Li1+  0.850  0.650  0.896  1.000
  Li8  Li1+  0.450  0.250  0.296  1.000
  Li8  Li1+  0.850  0.050  0.096  1.000
  Li8  Li1+  0.850  0.050  0.896  1.000
  Li8  Li1+  0.250  0.650  0.896  1.000
  Li8  Li1+  0.450  0.050  0.496  1.000
  Li8  Li1+  0.050  0.650  0.296  1.000
  Li8  Li1+  0.250  0.450  0.696  1.000
  Li8  Li1+  0.250  0.450  0.496  1.000
  Li8  Li1+  0.450  0.050  0.896  1.000
  Li8  Li1+  0.650  0.450  0.696  1.000
  Li8  Li1+  0.450  0.850  0.896  1.000
  Li8  Li1+  0.650  0.050  0.896  1.000
  Li8  Li1+  0.250  0.250  0.696  1.000
  Li8  Li1+  0.250  0.050  0.896  1.000
  Li8  Li1+  0.850  0.450  0.896  1.000
  Li8  Li1+  0.250  0.050  0.696  1.000
  Li8  Li1+  0.450  0.850  0.296  1.000
  Li8  Li1+  0.850  0.850  0.096  1.000
  Li8  Li1+  0.850  0.250  0.896  1.000
  Li8  Li1+  0.250  0.050  0.496  1.000
  Li8  Li1+  0.650  0.850  0.496  1.000
  Li8  Li1+  0.650  0.250  0.496  1.000
  Li8  Li1+  0.650  0.250  0.896  1.000
  Li8  Li1+  0.650  0.450  0.296  1.000
  Li8  Li1+  0.450  0.850  0.496  1.000
  Li8  Li1+  0.250  0.850  0.896  1.000
  Li8  Li1+  0.650  0.650  0.296  1.000
  Li8  Li1+  0.450  0.250  0.896  1.000
  Li8  Li1+  0.450  0.650  0.096  1.000
  Li8  Li1+  0.650  0.050  0.696  1.000
  Li8  Li1+  0.450  0.850  0.696  1.000
  Li8  Li1+  0.250  0.450  0.096  1.000
  Li8  Li1+  0.250  0.650  0.496  1.000
  Li8  Li1+  0.850  0.050  0.296  1.000
  Li8  Li1+  0.650  0.650  0.896  1.000
  Li8  Li1+  0.450  0.450  0.496  1.000
  Li8  Li1+  0.850  0.650  0.096  1.000
  Li8  Li1+  0.850  0.850  0.296  1.000
  Li8  Li1+  0.850  0.250  0.096  1.000
  Li8  Li1+  0.050  0.650  0.096  1.000
  Li8  Li1+  0.650  0.050  0.096  1.000
  Li8  Li1+  0.050  0.250  0.296  1.000
  Li8  Li1+  0.650  0.050  0.496  1.000
  Li8  Li1+  0.850  0.450  0.096  1.000
  Li8  Li1+  0.050  0.450  0.896  1.000
  Li8  Li1+  0.650  0.050  0.296  1.000
  Li8  Li1+  0.450  0.650  0.896  1.000
  Li8  Li1+  0.050  0.650  0.496  1.000
  Li8  Li1+  0.050  0.050  0.496  1.000
  Li8  Li1+  0.250  0.050  0.096  1.000
  Li8  Li1+  0.250  0.250  0.496  1.000
  Li8  Li1+  0.650  0.450  0.896  1.000
  Li8  Li1+  0.050  0.650  0.696  1.000
  Li8  Li1+  0.450  0.250  0.496  1.000
  Li8  Li1+  0.650  0.850  0.696  1.000
  Li8  Li1+  0.450  0.050  0.296  1.000
  Li8  Li1+  0.050  0.850  0.696  1.000
  Li8  Li1+  0.850  0.850  0.496  1.000
  Li8  Li1+  0.050  0.050  0.696  1.000
  Li8  Li1+  0.850  0.650  0.296  1.000
  Li8  Li1+  0.250  0.850  0.696  1.000
  Li8  Li1+  0.050  0.450  0.096  1.000
  Li8  Li1+  0.050  0.450  0.696  1.000
  Li8  Li1+  0.850  0.050  0.496  1.000
  Li8  Li1+  0.450  0.650  0.296  1.000
  Li8  Li1+  0.850  0.250  0.296  1.000
  Li8  Li1+  0.650  0.250  0.296  1.000
  Li8  Li1+  0.050  0.650  0.896  1.000
  Li8  Li1+  0.850  0.450  0.296  1.000
  Li8  Li1+  0.450  0.250  0.096  1.000
  Li8  Li1+  0.050  0.450  0.496  1.000
  Li8  Li1+  0.050  0.250  0.896  1.000
  Li8  Li1+  0.050  0.050  0.896  1.000
  Li8  Li1+  0.450  0.050  0.696  1.000
  Li8  Li1+  0.450  0.450  0.696  1.000
  Li8  Li1+  0.450  0.450  0.096  1.000
  Li8  Li1+  0.650  0.850  0.096  1.000
  Li8  Li1+  0.850  0.850  0.696  1.000
  Li8  Li1+  0.050  0.850  0.296  1.000
  Li8  Li1+  0.050  0.850  0.896  1.000
  Li8  Li1+  0.850  0.650  0.496  1.000
  Li8  Li1+  0.650  0.250  0.696  1.000
  Li8  Li1+  0.650  0.650  0.496  1.000
  Li8  Li1+  0.650  0.450  0.496  1.000
  Li8  Li1+  0.250  0.250  0.296  1.000
  Li8  Li1+  0.250  0.650  0.696  1.000
  Li8  Li1+  0.650  0.250  0.096  1.000
  Li8  Li1+  0.650  0.450  0.096  1.000
  Li8  Li1+  0.250  0.450  0.896  1.000
  Li8  Li1+  0.250  0.250  0.896  1.000
  Li8  Li1+  0.850  0.250  0.496  1.000
  Li8  Li1+  0.050  0.250  0.696  1.000
  Li8  Li1+  0.650  0.850  0.896  1.000
  Li8  Li1+  0.250  0.850  0.496  1.000
  Li8  Li1+  0.850  0.850  0.896  1.000
  Li8  Li1+  0.050  0.250  0.096  1.000
  Li8  Li1+  0.850  0.450  0.496  1.000
  Li8  Li1+  0.250  0.450  0.296  1.000
  Li8  Li1+  0.450  0.650  0.496  1.000
  Li8  Li1+  0.250  0.650  0.296  1.000
  Li8  Li1+  0.450  0.650  0.696  1.000
  Li8  Li1+  0.250  0.650  0.096  1.000
  Li8  Li1+  0.050  0.050  0.296  1.000
  Li8  Li1+  0.850  0.050  0.696  1.000
  Li8  Li1+  0.050  0.050  0.096  1.000
  Li8  Li1+  0.250  0.050  0.296  1.000
  Li8  Li1+  0.850  0.650  0.696  1.000
  Li8  Li1+  0.450  0.050  0.096  1.000
  Li8  Li1+  0.450  0.250  0.696  1.000
  Li8  Li1+  0.650  0.650  0.096  1.000
  Li8  Li1+  0.050  0.850  0.096  1.000
  Li9  Li1+  0.950  0.750  0.868  1.000
  Li9  Li1+  0.350  0.750  0.268  1.000
  Li9  Li1+  0.150  0.750  0.468  1.000
  Li9  Li1+  0.550  0.350  0.868  1.000
  Li9  Li1+  0.950  0.550  0.868  1.000
  Li9  Li1+  0.350  0.150  0.268  1.000
  Li9  Li1+  0.150  0.550  0.268  1.000
  Li9  Li1+  0.750  0.750  0.068  1.000
  Li9  Li1+  0.550  0.150  0.668  1.000
  Li9  Li1+  0.150  0.950  0.068  1.000
  Li9  Li1+  0.750  0.350  0.868  1.000
  Li9  Li1+  0.150  0.950  0.668  1.000
  Li9  Li1+  0.550  0.750  0.668  1.000
  Li9  Li1+  0.550  0.350  0.068  1.000
  Li9  Li1+  0.950  0.150  0.468  1.000
  Li9  Li1+  0.550  0.350  0.468  1.000
  Li9  Li1+  0.150  0.350  0.668  1.000
  Li9  Li1+  0.950  0.550  0.068  1.000
  Li9  Li1+  0.550  0.150  0.068  1.000
  Li9  Li1+  0.950  0.950  0.068  1.000
  Li9  Li1+  0.350  0.750  0.668  1.000
  Li9  Li1+  0.550  0.950  0.268  1.000
  Li9  Li1+  0.750  0.550  0.668  1.000
  Li9  Li1+  0.750  0.550  0.268  1.000
  Li9  Li1+  0.550  0.550  0.468  1.000
  Li9  Li1+  0.150  0.150  0.268  1.000
  Li9  Li1+  0.950  0.750  0.068  1.000
  Li9  Li1+  0.550  0.750  0.868  1.000
  Li9  Li1+  0.750  0.350  0.268  1.000
  Li9  Li1+  0.350  0.350  0.468  1.000
  Li9  Li1+  0.950  0.350  0.268  1.000
  Li9  Li1+  0.550  0.750  0.068  1.000
  Li9  Li1+  0.750  0.750  0.668  1.000
  Li9  Li1+  0.750  0.950  0.868  1.000
  Li9  Li1+  0.350  0.550  0.068  1.000
  Li9  Li1+  0.150  0.950  0.468  1.000
  Li9  Li1+  0.150  0.350  0.868  1.000
  Li9  Li1+  0.750  0.950  0.268  1.000
  Li9  Li1+  0.550  0.950  0.868  1.000
  Li9  Li1+  0.150  0.950  0.868  1.000
  Li9  Li1+  0.750  0.350  0.068  1.000
  Li9  Li1+  0.150  0.950  0.268  1.000
  Li9  Li1+  0.950  0.950  0.268  1.000
  Li9  Li1+  0.150  0.150  0.668  1.000
  Li9  Li1+  0.150  0.550  0.668  1.000
  Li9  Li1+  0.150  0.750  0.668  1.000
  Li9  Li1+  0.350  0.150  0.068  1.000
  Li9  Li1+  0.950  0.550  0.268  1.000
  Li9  Li1+  0.550  0.950  0.068  1.000
  Li9  Li1+  0.350  0.350  0.268  1.000
  Li9  Li1+  0.350  0.950  0.868  1.000
  Li9  Li1+  0.550  0.150  0.468  1.000
  Li9  Li1+  0.950  0.750  0.268  1.000
  Li9  Li1+  0.550  0.550  0.068  1.000
  Li9  Li1+  0.950  0.150  0.668  1.000
  Li9  Li1+  0.350  0.150  0.468  1.000
  Li9  Li1+  0.750  0.350  0.668  1.000
  Li9  Li1+  0.950  0.350  0.468  1.000
  Li9  Li1+  0.150  0.550  0.068  1.000
  Li9  Li1+  0.750  0.750  0.268  1.000
  Li9  Li1+  0.350  0.150  0.668  1.000
  Li9  Li1+  0.550  0.950  0.468  1.000
  Li9  Li1+  0.150  0.750  0.268  1.000
  Li9  Li1+  0.350  0.350  0.068  1.000
  Li9  Li1+  0.950  0.950  0.468  1.000
  Li9  Li1+  0.550  0.950  0.668  1.000
  Li9  Li1+  0.950  0.150  0.068  1.000
  Li9  Li1+  0.550  0.550  0.668  1.000
  Li9  Li1+  0.150  0.350  0.268  1.000
  Li9  Li1+  0.750  0.150  0.068  1.000
  Li9  Li1+  0.150  0.550  0.868  1.000
  Li9  Li1+  0.750  0.550  0.868  1.000
  Li9  Li1+  0.150  0.750  0.868  1.000
  Li9  Li1+  0.550  0.750  0.268  1.000
  Li9  Li1+  0.550  0.350  0.668  1.000
  Li9  Li1+  0.950  0.750  0.468  1.000
  Li9  Li1+  0.750  0.950  0.468  1.000
  Li9  Li1+  0.550  0.350  0.268  1.000
  Li9  Li1+  0.950  0.550  0.468  1.000
  Li9  Li1+  0.350  0.150  0.868  1.000
  Li9  Li1+  0.550  0.150  0.868  1.000
  Li9  Li1+  0.350  0.350  0.868  1.000
  Li9  Li1+  0.750  0.150  0.268  1.000
  Li9  Li1+  0.350  0.750  0.468  1.000
  Li9  Li1+  0.350  0.950  0.668  1.000
  Li9  Li1+  0.950  0.150  0.868  1.000
  Li9  Li1+  0.750  0.750  0.868  1.000
  Li9  Li1+  0.950  0.950  0.668  1.000
  Li9  Li1+  0.750  0.550  0.068  1.000
  Li9  Li1+  0.150  0.350  0.068  1.000
  Li9  Li1+  0.950  0.350  0.668  1.000
  Li9  Li1+  0.750  0.150  0.868  1.000
  Li9  Li1+  0.750  0.550  0.468  1.000
  Li9  Li1+  0.750  0.150  0.668  1.000
  Li9  Li1+  0.350  0.750  0.868  1.000
  Li9  Li1+  0.350  0.550  0.468  1.000
  Li9  Li1+  0.150  0.750  0.068  1.000
  Li9  Li1+  0.150  0.350  0.468  1.000
  Li9  Li1+  0.350  0.950  0.468  1.000
  Li9  Li1+  0.950  0.550  0.668  1.000
  Li9  Li1+  0.350  0.950  0.068  1.000
  Li9  Li1+  0.150  0.150  0.468  1.000
  Li9  Li1+  0.950  0.750  0.668  1.000
  Li9  Li1+  0.550  0.550  0.268  1.000
  Li9  Li1+  0.150  0.150  0.868  1.000
  Li9  Li1+  0.950  0.950  0.868  1.000
  Li9  Li1+  0.550  0.150  0.268  1.000
  Li9  Li1+  0.350  0.550  0.268  1.000
  Li9  Li1+  0.350  0.550  0.868  1.000
  Li9  Li1+  0.750  0.150  0.468  1.000
  Li9  Li1+  0.950  0.150  0.268  1.000
  Li9  Li1+  0.550  0.750  0.468  1.000
  Li9  Li1+  0.350  0.550  0.668  1.000
  Li9  Li1+  0.150  0.150  0.068  1.000
  Li9  Li1+  0.750  0.750  0.468  1.000
  Li9  Li1+  0.950  0.350  0.868  1.000
  Li9  Li1+  0.750  0.950  0.668  1.000
  Li9  Li1+  0.550  0.550  0.868  1.000
  Li9  Li1+  0.350  0.950  0.268  1.000
  Li9  Li1+  0.350  0.750  0.068  1.000
  Li9  Li1+  0.750  0.950  0.068  1.000
  Li9  Li1+  0.350  0.350  0.668  1.000
  Li9  Li1+  0.750  0.350  0.468  1.000
  Li9  Li1+  0.150  0.550  0.468  1.000
  Li9  Li1+  0.950  0.350  0.068  1.000
  Li10  Li1+  0.750  0.750  0.486  1.000
  Li10  Li1+  0.550  0.550  0.486  1.000
  Li10  Li1+  0.150  0.150  0.886  1.000
  Li10  Li1+  0.150  0.350  0.886  1.000
  Li10  Li1+  0.950  0.750  0.086  1.000
  Li10  Li1+  0.550  0.150  0.886  1.000
  Li10  Li1+  0.350  0.150  0.286  1.000
  Li10  Li1+  0.350  0.350  0.086  1.000
  Li10  Li1+  0.950  0.950  0.086  1.000
  Li10  Li1+  0.550  0.150  0.286  1.000
  Li10  Li1+  0.950  0.350  0.486  1.000
  Li10  Li1+  0.350  0.750  0.486  1.000
  Li10  Li1+  0.350  0.150  0.886  1.000
  Li10  Li1+  0.950  0.550  0.286  1.000
  Li10  Li1+  0.150  0.750  0.086  1.000
  Li10  Li1+  0.750  0.150  0.886  1.000
  Li10  Li1+  0.150  0.750  0.286  1.000
  Li10  Li1+  0.750  0.750  0.086  1.000
  Li10  Li1+  0.550  0.350  0.286  1.000
  Li10  Li1+  0.150  0.150  0.086  1.000
  Li10  Li1+  0.750  0.350  0.686  1.000
  Li10  Li1+  0.550  0.750  0.086  1.000
  Li10  Li1+  0.550  0.550  0.086  1.000
  Li10  Li1+  0.150  0.750  0.686  1.000
  Li10  Li1+  0.750  0.550  0.686  1.000
  Li10  Li1+  0.350  0.750  0.286  1.000
  Li10  Li1+  0.350  0.550  0.086  1.000
  Li10  Li1+  0.150  0.550  0.686  1.000
  Li10  Li1+  0.550  0.350  0.686  1.000
  Li10  Li1+  0.750  0.950  0.086  1.000
  Li10  Li1+  0.950  0.150  0.886  1.000
  Li10  Li1+  0.150  0.950  0.286  1.000
  Li10  Li1+  0.950  0.750  0.286  1.000
  Li10  Li1+  0.350  0.550  0.686  1.000
  Li10  Li1+  0.950  0.950  0.286  1.000
  Li10  Li1+  0.550  0.750  0.686  1.000
  Li10  Li1+  0.750  0.950  0.686  1.000
  Li10  Li1+  0.350  0.550  0.486  1.000
  Li10  Li1+  0.550  0.150  0.086  1.000
  Li10  Li1+  0.350  0.750  0.886  1.000
  Li10  Li1+  0.150  0.150  0.486  1.000
  Li10  Li1+  0.350  0.150  0.086  1.000
  Li10  Li1+  0.150  0.150  0.286  1.000
  Li10  Li1+  0.950  0.350  0.686  1.000
  Li10  Li1+  0.950  0.150  0.286  1.000
  Li10  Li1+  0.950  0.550  0.486  1.000
  Li10  Li1+  0.550  0.950  0.486  1.000
  Li10  Li1+  0.550  0.550  0.686  1.000
  Li10  Li1+  0.550  0.950  0.086  1.000
  Li10  Li1+  0.150  0.550  0.286  1.000
  Li10  Li1+  0.150  0.550  0.486  1.000
  Li10  Li1+  0.750  0.550  0.086  1.000
  Li10  Li1+  0.750  0.750  0.686  1.000
  Li10  Li1+  0.550  0.150  0.686  1.000
  Li10  Li1+  0.950  0.750  0.486  1.000
  Li10  Li1+  0.150  0.350  0.286  1.000
  Li10  Li1+  0.350  0.950  0.086  1.000
  Li10  Li1+  0.950  0.950  0.486  1.000
  Li10  Li1+  0.150  0.950  0.486  1.000
  Li10  Li1+  0.150  0.950  0.686  1.000
  Li10  Li1+  0.350  0.950  0.886  1.000
  Li10  Li1+  0.750  0.350  0.486  1.000
  Li10  Li1+  0.150  0.550  0.086  1.000
  Li10  Li1+  0.750  0.550  0.886  1.000
  Li10  Li1+  0.750  0.950  0.286  1.000
  Li10  Li1+  0.750  0.750  0.286  1.000
  Li10  Li1+  0.150  0.350  0.686  1.000
  Li10  Li1+  0.350  0.350  0.886  1.000
  Li10  Li1+  0.550  0.750  0.286  1.000
  Li10  Li1+  0.950  0.350  0.086  1.000
  Li10  Li1+  0.950  0.550  0.686  1.000
  Li10  Li1+  0.150  0.750  0.886  1.000
  Li10  Li1+  0.950  0.350  0.886  1.000
  Li10  Li1+  0.750  0.550  0.486  1.000
  Li10  Li1+  0.550  0.950  0.286  1.000
  Li10  Li1+  0.150  0.350  0.086  1.000
  Li10  Li1+  0.750  0.150  0.086  1.000
  Li10  Li1+  0.550  0.550  0.286  1.000
  Li10  Li1+  0.950  0.150  0.486  1.000
  Li10  Li1+  0.350  0.750  0.686  1.000
  Li10  Li1+  0.550  0.350  0.086  1.000
  Li10  Li1+  0.350  0.150  0.486  1.000
  Li10  Li1+  0.750  0.950  0.886  1.000
  Li10  Li1+  0.350  0.950  0.686  1.000
  Li10  Li1+  0.950  0.950  0.686  1.000
  Li10  Li1+  0.150  0.750  0.486  1.000
  Li10  Li1+  0.350  0.750  0.086  1.000
  Li10  Li1+  0.350  0.550  0.886  1.000
  Li10  Li1+  0.950  0.750  0.686  1.000
  Li10  Li1+  0.550  0.350  0.886  1.000
  Li10  Li1+  0.750  0.150  0.286  1.000
  Li10  Li1+  0.550  0.350  0.486  1.000
  Li10  Li1+  0.550  0.150  0.486  1.000
  Li10  Li1+  0.150  0.550  0.886  1.000
  Li10  Li1+  0.350  0.350  0.686  1.000
  Li10  Li1+  0.350  0.950  0.286  1.000
  Li10  Li1+  0.350  0.950  0.486  1.000
  Li10  Li1+  0.550  0.750  0.886  1.000
  Li10  Li1+  0.350  0.150  0.686  1.000
  Li10  Li1+  0.750  0.350  0.286  1.000
  Li10  Li1+  0.750  0.350  0.886  1.000
  Li10  Li1+  0.550  0.550  0.886  1.000
  Li10  Li1+  0.950  0.550  0.886  1.000
  Li10  Li1+  0.950  0.950  0.886  1.000
  Li10  Li1+  0.550  0.950  0.686  1.000
  Li10  Li1+  0.950  0.350  0.286  1.000
  Li10  Li1+  0.950  0.550  0.086  1.000
  Li10  Li1+  0.350  0.550  0.286  1.000
  Li10  Li1+  0.750  0.750  0.886  1.000
  Li10  Li1+  0.750  0.350  0.086  1.000
  Li10  Li1+  0.550  0.950  0.886  1.000
  Li10  Li1+  0.550  0.750  0.486  1.000
  Li10  Li1+  0.150  0.150  0.686  1.000
  Li10  Li1+  0.950  0.750  0.886  1.000
  Li10  Li1+  0.750  0.950  0.486  1.000
  Li10  Li1+  0.150  0.350  0.486  1.000
  Li10  Li1+  0.950  0.150  0.086  1.000
  Li10  Li1+  0.950  0.150  0.686  1.000
  Li10  Li1+  0.150  0.950  0.086  1.000
  Li10  Li1+  0.350  0.350  0.486  1.000
  Li10  Li1+  0.150  0.950  0.886  1.000
  Li10  Li1+  0.750  0.150  0.686  1.000
  Li10  Li1+  0.750  0.150  0.486  1.000
  Li10  Li1+  0.750  0.550  0.286  1.000
  Li10  Li1+  0.350  0.350  0.286  1.000
  Li11  Li1+  0.050  0.650  0.714  1.000
  Li11  Li1+  0.050  0.250  0.114  1.000
  Li11  Li1+  0.650  0.450  0.714  1.000
  Li11  Li1+  0.650  0.850  0.914  1.000
  Li11  Li1+  0.450  0.250  0.114  1.000
  Li11  Li1+  0.650  0.650  0.914  1.000
  Li11  Li1+  0.050  0.050  0.514  1.000
  Li11  Li1+  0.250  0.050  0.114  1.000
  Li11  Li1+  0.450  0.650  0.114  1.000
  Li11  Li1+  0.850  0.050  0.514  1.000
  Li11  Li1+  0.050  0.250  0.914  1.000
  Li11  Li1+  0.850  0.650  0.314  1.000
  Li11  Li1+  0.850  0.450  0.514  1.000
  Li11  Li1+  0.650  0.650  0.114  1.000
  Li11  Li1+  0.850  0.250  0.114  1.000
  Li11  Li1+  0.050  0.650  0.114  1.000
  Li11  Li1+  0.250  0.850  0.114  1.000
  Li11  Li1+  0.250  0.650  0.114  1.000
  Li11  Li1+  0.650  0.650  0.514  1.000
  Li11  Li1+  0.450  0.650  0.714  1.000
  Li11  Li1+  0.650  0.250  0.314  1.000
  Li11  Li1+  0.050  0.650  0.514  1.000
  Li11  Li1+  0.450  0.850  0.514  1.000
  Li11  Li1+  0.850  0.850  0.314  1.000
  Li11  Li1+  0.650  0.850  0.514  1.000
  Li11  Li1+  0.050  0.050  0.314  1.000
  Li11  Li1+  0.450  0.450  0.714  1.000
  Li11  Li1+  0.650  0.450  0.114  1.000
  Li11  Li1+  0.650  0.250  0.114  1.000
  Li11  Li1+  0.850  0.250  0.914  1.000
  Li11  Li1+  0.250  0.050  0.914  1.000
  Li11  Li1+  0.250  0.450  0.914  1.000
  Li11  Li1+  0.250  0.250  0.914  1.000
  Li11  Li1+  0.650  0.050  0.914  1.000
  Li11  Li1+  0.650  0.050  0.114  1.000
  Li11  Li1+  0.450  0.450  0.314  1.000
  Li11  Li1+  0.850  0.650  0.514  1.000
  Li11  Li1+  0.050  0.650  0.314  1.000
  Li11  Li1+  0.450  0.250  0.514  1.000
  Li11  Li1+  0.450  0.050  0.314  1.000
  Li11  Li1+  0.850  0.450  0.714  1.000
  Li11  Li1+  0.050  0.850  0.514  1.000
  Li11  Li1+  0.050  0.650  0.914  1.000
  Li11  Li1+  0.450  0.250  0.914  1.000
  Li11  Li1+  0.050  0.050  0.114  1.000
  Li11  Li1+  0.050  0.450  0.914  1.000
  Li11  Li1+  0.450  0.650  0.914  1.000
  Li11  Li1+  0.850  0.050  0.114  1.000
  Li11  Li1+  0.850  0.850  0.514  1.000
  Li11  Li1+  0.450  0.050  0.914  1.000
  Li11  Li1+  0.450  0.850  0.714  1.000
  Li11  Li1+  0.450  0.850  0.914  1.000
  Li11  Li1+  0.850  0.250  0.314  1.000
  Li11  Li1+  0.650  0.450  0.514  1.000
  Li11  Li1+  0.850  0.050  0.714  1.000
  Li11  Li1+  0.450  0.050  0.114  1.000
  Li11  Li1+  0.250  0.850  0.314  1.000
  Li11  Li1+  0.450  0.650  0.314  1.000
  Li11  Li1+  0.450  0.850  0.314  1.000
  Li11  Li1+  0.250  0.850  0.714  1.000
  Li11  Li1+  0.250  0.850  0.914  1.000
  Li11  Li1+  0.250  0.250  0.714  1.000
  Li11  Li1+  0.250  0.250  0.114  1.000
  Li11  Li1+  0.650  0.850  0.114  1.000
  Li11  Li1+  0.850  0.450  0.114  1.000
  Li11  Li1+  0.050  0.850  0.114  1.000
  Li11  Li1+  0.650  0.250  0.914  1.000
  Li11  Li1+  0.050  0.250  0.514  1.000
  Li11  Li1+  0.050  0.250  0.714  1.000
  Li11  Li1+  0.850  0.650  0.714  1.000
  Li11  Li1+  0.650  0.450  0.914  1.000
  Li11  Li1+  0.250  0.850  0.514  1.000
  Li11  Li1+  0.850  0.450  0.914  1.000
  Li11  Li1+  0.250  0.250  0.514  1.000
  Li11  Li1+  0.650  0.650  0.714  1.000
  Li11  Li1+  0.250  0.450  0.514  1.000
  Li11  Li1+  0.250  0.250  0.314  1.000
  Li11  Li1+  0.650  0.850  0.714  1.000
  Li11  Li1+  0.850  0.850  0.714  1.000
  Li11  Li1+  0.650  0.650  0.314  1.000
  Li11  Li1+  0.050  0.850  0.914  1.000
  Li11  Li1+  0.050  0.850  0.714  1.000
  Li11  Li1+  0.450  0.250  0.314  1.000
  Li11  Li1+  0.650  0.050  0.314  1.000
  Li11  Li1+  0.450  0.450  0.914  1.000
  Li11  Li1+  0.850  0.250  0.514  1.000
  Li11  Li1+  0.250  0.650  0.314  1.000
  Li11  Li1+  0.250  0.050  0.514  1.000
  Li11  Li1+  0.050  0.250  0.314  1.000
  Li11  Li1+  0.250  0.650  0.914  1.000
  Li11  Li1+  0.450  0.050  0.714  1.000
  Li11  Li1+  0.650  0.250  0.714  1.000
  Li11  Li1+  0.250  0.450  0.314  1.000
  Li11  Li1+  0.850  0.050  0.914  1.000
  Li11  Li1+  0.450  0.450  0.514  1.000
  Li11  Li1+  0.050  0.450  0.514  1.000
  Li11  Li1+  0.850  0.050  0.314  1.000
  Li11  Li1+  0.850  0.650  0.914  1.000
  Li11  Li1+  0.050  0.450  0.714  1.000
  Li11  Li1+  0.850  0.450  0.314  1.000
  Li11  Li1+  0.850  0.850  0.914  1.000
  Li11  Li1+  0.450  0.650  0.514  1.000
  Li11  Li1+  0.850  0.650  0.114  1.000
  Li11  Li1+  0.650  0.450  0.314  1.000
  Li11  Li1+  0.450  0.250  0.714  1.000
  Li11  Li1+  0.450  0.850  0.114  1.000
  Li11  Li1+  0.050  0.050  0.714  1.000
  Li11  Li1+  0.650  0.850  0.314  1.000
  Li11  Li1+  0.450  0.450  0.114  1.000
  Li11  Li1+  0.050  0.850  0.314  1.000
  Li11  Li1+  0.250  0.650  0.714  1.000
  Li11  Li1+  0.250  0.650  0.514  1.000
  Li11  Li1+  0.250  0.450  0.714  1.000
  Li11  Li1+  0.250  0.050  0.314  1.000
  Li11  Li1+  0.050  0.450  0.114  1.000
  Li11  Li1+  0.050  0.450  0.314  1.000
  Li11  Li1+  0.650  0.050  0.514  1.000
  Li11  Li1+  0.050  0.050  0.914  1.000
  Li11  Li1+  0.250  0.450  0.114  1.000
  Li11  Li1+  0.650  0.050  0.714  1.000
  Li11  Li1+  0.650  0.250  0.514  1.000
  Li11  Li1+  0.850  0.250  0.714  1.000
  Li11  Li1+  0.850  0.850  0.114  1.000
  Li11  Li1+  0.450  0.050  0.514  1.000
  Li11  Li1+  0.250  0.050  0.714  1.000
  Li12  Li1+  0.550  0.750  0.704  1.000
  Li12  Li1+  0.150  0.950  0.704  1.000
  Li12  Li1+  0.350  0.350  0.104  1.000
  Li12  Li1+  0.750  0.550  0.104  1.000
  Li12  Li1+  0.950  0.350  0.304  1.000
  Li12  Li1+  0.550  0.350  0.904  1.000
  Li12  Li1+  0.550  0.550  0.304  1.000
  Li12  Li1+  0.550  0.550  0.704  1.000
  Li12  Li1+  0.750  0.950  0.704  1.000
  Li12  Li1+  0.750  0.550  0.704  1.000
  Li12  Li1+  0.350  0.550  0.704  1.000
  Li12  Li1+  0.350  0.350  0.904  1.000
  Li12  Li1+  0.150  0.150  0.704  1.000
  Li12  Li1+  0.950  0.550  0.704  1.000
  Li12  Li1+  0.150  0.350  0.304  1.000
  Li12  Li1+  0.950  0.950  0.304  1.000
  Li12  Li1+  0.550  0.950  0.704  1.000
  Li12  Li1+  0.150  0.550  0.304  1.000
  Li12  Li1+  0.750  0.750  0.104  1.000
  Li12  Li1+  0.150  0.150  0.904  1.000
  Li12  Li1+  0.950  0.750  0.504  1.000
  Li12  Li1+  0.550  0.150  0.704  1.000
  Li12  Li1+  0.750  0.950  0.304  1.000
  Li12  Li1+  0.350  0.750  0.504  1.000
  Li12  Li1+  0.150  0.950  0.904  1.000
  Li12  Li1+  0.750  0.150  0.504  1.000
  Li12  Li1+  0.750  0.350  0.904  1.000
  Li12  Li1+  0.150  0.150  0.504  1.000
  Li12  Li1+  0.550  0.350  0.304  1.000
  Li12  Li1+  0.950  0.550  0.104  1.000
  Li12  Li1+  0.350  0.950  0.304  1.000
  Li12  Li1+  0.350  0.350  0.304  1.000
  Li12  Li1+  0.750  0.150  0.104  1.000
  Li12  Li1+  0.350  0.350  0.704  1.000
  Li12  Li1+  0.350  0.350  0.504  1.000
  Li12  Li1+  0.150  0.750  0.904  1.000
  Li12  Li1+  0.950  0.150  0.304  1.000
  Li12  Li1+  0.750  0.750  0.504  1.000
  Li12  Li1+  0.750  0.750  0.904  1.000
  Li12  Li1+  0.550  0.150  0.504  1.000
  Li12  Li1+  0.150  0.550  0.704  1.000
  Li12  Li1+  0.350  0.750  0.904  1.000
  Li12  Li1+  0.950  0.950  0.504  1.000
  Li12  Li1+  0.950  0.350  0.504  1.000
  Li12  Li1+  0.950  0.150  0.904  1.000
  Li12  Li1+  0.750  0.550  0.504  1.000
  Li12  Li1+  0.950  0.550  0.904  1.000
  Li12  Li1+  0.350  0.150  0.704  1.000
  Li12  Li1+  0.550  0.950  0.904  1.000
  Li12  Li1+  0.150  0.350  0.504  1.000
  Li12  Li1+  0.150  0.550  0.904  1.000
  Li12  Li1+  0.550  0.750  0.304  1.000
  Li12  Li1+  0.350  0.750  0.704  1.000
  Li12  Li1+  0.350  0.950  0.504  1.000
  Li12  Li1+  0.950  0.750  0.704  1.000
  Li12  Li1+  0.150  0.750  0.104  1.000
  Li12  Li1+  0.150  0.950  0.504  1.000
  Li12  Li1+  0.750  0.950  0.904  1.000
  Li12  Li1+  0.350  0.950  0.704  1.000
  Li12  Li1+  0.550  0.350  0.704  1.000
  Li12  Li1+  0.750  0.350  0.704  1.000
  Li12  Li1+  0.750  0.150  0.704  1.000
  Li12  Li1+  0.150  0.950  0.304  1.000
  Li12  Li1+  0.150  0.950  0.104  1.000
  Li12  Li1+  0.550  0.350  0.104  1.000
  Li12  Li1+  0.950  0.550  0.304  1.000
  Li12  Li1+  0.550  0.150  0.304  1.000
  Li12  Li1+  0.750  0.550  0.904  1.000
  Li12  Li1+  0.550  0.550  0.904  1.000
  Li12  Li1+  0.550  0.550  0.504  1.000
  Li12  Li1+  0.750  0.950  0.504  1.000
  Li12  Li1+  0.550  0.550  0.104  1.000
  Li12  Li1+  0.550  0.150  0.104  1.000
  Li12  Li1+  0.950  0.150  0.504  1.000
  Li12  Li1+  0.950  0.950  0.704  1.000
  Li12  Li1+  0.350  0.950  0.904  1.000
  Li12  Li1+  0.950  0.750  0.104  1.000
  Li12  Li1+  0.150  0.350  0.904  1.000
  Li12  Li1+  0.350  0.550  0.504  1.000
  Li12  Li1+  0.550  0.750  0.904  1.000
  Li12  Li1+  0.150  0.150  0.304  1.000
  Li12  Li1+  0.950  0.350  0.704  1.000
  Li12  Li1+  0.550  0.950  0.304  1.000
  Li12  Li1+  0.950  0.750  0.904  1.000
  Li12  Li1+  0.750  0.150  0.904  1.000
  Li12  Li1+  0.350  0.550  0.904  1.000
  Li12  Li1+  0.350  0.150  0.904  1.000
  Li12  Li1+  0.950  0.350  0.104  1.000
  Li12  Li1+  0.350  0.550  0.304  1.000
  Li12  Li1+  0.750  0.550  0.304  1.000
  Li12  Li1+  0.750  0.350  0.504  1.000
  Li12  Li1+  0.750  0.750  0.304  1.000
  Li12  Li1+  0.750  0.350  0.304  1.000
  Li12  Li1+  0.750  0.750  0.704  1.000
  Li12  Li1+  0.750  0.950  0.104  1.000
  Li12  Li1+  0.750  0.350  0.104  1.000
  Li12  Li1+  0.150  0.750  0.704  1.000
  Li12  Li1+  0.550  0.950  0.504  1.000
  Li12  Li1+  0.950  0.950  0.904  1.000
  Li12  Li1+  0.150  0.550  0.104  1.000
  Li12  Li1+  0.550  0.750  0.504  1.000
  Li12  Li1+  0.950  0.150  0.104  1.000
  Li12  Li1+  0.150  0.750  0.304  1.000
  Li12  Li1+  0.350  0.150  0.504  1.000
  Li12  Li1+  0.150  0.350  0.104  1.000
  Li12  Li1+  0.550  0.150  0.904  1.000
  Li12  Li1+  0.950  0.550  0.504  1.000
  Li12  Li1+  0.350  0.550  0.104  1.000
  Li12  Li1+  0.150  0.350  0.704  1.000
  Li12  Li1+  0.350  0.950  0.104  1.000
  Li12  Li1+  0.150  0.750  0.504  1.000
  Li12  Li1+  0.750  0.150  0.304  1.000
  Li12  Li1+  0.950  0.950  0.104  1.000
  Li12  Li1+  0.550  0.950  0.104  1.000
  Li12  Li1+  0.350  0.750  0.304  1.000
  Li12  Li1+  0.550  0.350  0.504  1.000
  Li12  Li1+  0.950  0.750  0.304  1.000
  Li12  Li1+  0.350  0.750  0.104  1.000
  Li12  Li1+  0.150  0.150  0.104  1.000
  Li12  Li1+  0.950  0.350  0.904  1.000
  Li12  Li1+  0.150  0.550  0.504  1.000
  Li12  Li1+  0.350  0.150  0.104  1.000
  Li12  Li1+  0.550  0.750  0.104  1.000
  Li12  Li1+  0.950  0.150  0.704  1.000
  Li12  Li1+  0.350  0.150  0.304  1.000
  Li13  Li1+  0.650  0.650  0.332  1.000
  Li13  Li1+  0.050  0.650  0.332  1.000
  Li13  Li1+  0.450  0.250  0.132  1.000
  Li13  Li1+  0.050  0.650  0.932  1.000
  Li13  Li1+  0.850  0.850  0.332  1.000
  Li13  Li1+  0.650  0.050  0.532  1.000
  Li13  Li1+  0.250  0.650  0.532  1.000
  Li13  Li1+  0.450  0.250  0.732  1.000
  Li13  Li1+  0.650  0.650  0.732  1.000
  Li13  Li1+  0.250  0.450  0.932  1.000
  Li13  Li1+  0.250  0.050  0.932  1.000
  Li13  Li1+  0.850  0.050  0.532  1.000
  Li13  Li1+  0.050  0.050  0.732  1.000
  Li13  Li1+  0.650  0.850  0.132  1.000
  Li13  Li1+  0.050  0.250  0.532  1.000
  Li13  Li1+  0.450  0.850  0.132  1.000
  Li13  Li1+  0.850  0.450  0.932  1.000
  Li13  Li1+  0.250  0.850  0.332  1.000
  Li13  Li1+  0.650  0.450  0.132  1.000
  Li13  Li1+  0.250  0.450  0.732  1.000
  Li13  Li1+  0.050  0.250  0.732  1.000
  Li13  Li1+  0.050  0.250  0.332  1.000
  Li13  Li1+  0.450  0.050  0.932  1.000
  Li13  Li1+  0.650  0.050  0.732  1.000
  Li13  Li1+  0.050  0.050  0.532  1.000
  Li13  Li1+  0.450  0.450  0.132  1.000
  Li13  Li1+  0.850  0.250  0.132  1.000
  Li13  Li1+  0.850  0.450  0.332  1.000
  Li13  Li1+  0.650  0.450  0.732  1.000
  Li13  Li1+  0.850  0.050  0.132  1.000
  Li13  Li1+  0.250  0.650  0.932  1.000
  Li13  Li1+  0.850  0.250  0.732  1.000
  Li13  Li1+  0.450  0.650  0.332  1.000
  Li13  Li1+  0.850  0.850  0.532  1.000
  Li13  Li1+  0.850  0.650  0.732  1.000
  Li13  Li1+  0.050  0.850  0.932  1.000
  Li13  Li1+  0.050  0.650  0.732  1.000
  Li13  Li1+  0.250  0.650  0.732  1.000
  Li13  Li1+  0.250  0.650  0.332  1.000
  Li13  Li1+  0.050  0.850  0.332  1.000
  Li13  Li1+  0.450  0.850  0.332  1.000
  Li13  Li1+  0.450  0.450  0.532  1.000
  Li13  Li1+  0.050  0.650  0.132  1.000
  Li13  Li1+  0.650  0.250  0.932  1.000
  Li13  Li1+  0.650  0.650  0.132  1.000
  Li13  Li1+  0.450  0.850  0.532  1.000
  Li13  Li1+  0.450  0.050  0.732  1.000
  Li13  Li1+  0.450  0.450  0.932  1.000
  Li13  Li1+  0.650  0.850  0.732  1.000
  Li13  Li1+  0.850  0.650  0.132  1.000
  Li13  Li1+  0.250  0.250  0.132  1.000
  Li13  Li1+  0.450  0.250  0.532  1.000
  Li13  Li1+  0.650  0.050  0.332  1.000
  Li13  Li1+  0.250  0.450  0.532  1.000
  Li13  Li1+  0.850  0.050  0.732  1.000
  Li13  Li1+  0.250  0.050  0.732  1.000
  Li13  Li1+  0.050  0.650  0.532  1.000
  Li13  Li1+  0.050  0.450  0.732  1.000
  Li13  Li1+  0.050  0.050  0.932  1.000
  Li13  Li1+  0.250  0.850  0.532  1.000
  Li13  Li1+  0.650  0.850  0.332  1.000
  Li13  Li1+  0.050  0.850  0.732  1.000
  Li13  Li1+  0.650  0.450  0.532  1.000
  Li13  Li1+  0.650  0.650  0.532  1.000
  Li13  Li1+  0.850  0.650  0.932  1.000
  Li13  Li1+  0.650  0.050  0.932  1.000
  Li13  Li1+  0.850  0.850  0.732  1.000
  Li13  Li1+  0.850  0.450  0.532  1.000
  Li13  Li1+  0.650  0.250  0.732  1.000
  Li13  Li1+  0.450  0.050  0.532  1.000
  Li13  Li1+  0.450  0.250  0.932  1.000
  Li13  Li1+  0.050  0.450  0.132  1.000
  Li13  Li1+  0.850  0.250  0.932  1.000
  Li13  Li1+  0.850  0.250  0.332  1.000
  Li13  Li1+  0.050  0.850  0.132  1.000
  Li13  Li1+  0.650  0.650  0.932  1.000
  Li13  Li1+  0.050  0.450  0.332  1.000
  Li13  Li1+  0.450  0.850  0.732  1.000
  Li13  Li1+  0.650  0.250  0.132  1.000
  Li13  Li1+  0.250  0.450  0.332  1.000
  Li13  Li1+  0.050  0.450  0.932  1.000
  Li13  Li1+  0.250  0.850  0.732  1.000
  Li13  Li1+  0.650  0.250  0.332  1.000
  Li13  Li1+  0.850  0.050  0.332  1.000
  Li13  Li1+  0.250  0.650  0.132  1.000
  Li13  Li1+  0.450  0.250  0.332  1.000
  Li13  Li1+  0.050  0.250  0.132  1.000
  Li13  Li1+  0.850  0.650  0.332  1.000
  Li13  Li1+  0.650  0.250  0.532  1.000
  Li13  Li1+  0.450  0.650  0.532  1.000
  Li13  Li1+  0.250  0.450  0.132  1.000
  Li13  Li1+  0.250  0.250  0.332  1.000
  Li13  Li1+  0.450  0.850  0.932  1.000
  Li13  Li1+  0.850  0.850  0.932  1.000
  Li13  Li1+  0.650  0.050  0.132  1.000
  Li13  Li1+  0.250  0.050  0.532  1.000
  Li13  Li1+  0.250  0.250  0.732  1.000
  Li13  Li1+  0.850  0.850  0.132  1.000
  Li13  Li1+  0.450  0.450  0.332  1.000
  Li13  Li1+  0.650  0.450  0.932  1.000
  Li13  Li1+  0.250  0.050  0.132  1.000
  Li13  Li1+  0.250  0.250  0.932  1.000
  Li13  Li1+  0.450  0.050  0.332  1.000
  Li13  Li1+  0.450  0.650  0.132  1.000
  Li13  Li1+  0.450  0.050  0.132  1.000
  Li13  Li1+  0.250  0.850  0.932  1.000
  Li13  Li1+  0.850  0.450  0.732  1.000
  Li13  Li1+  0.250  0.850  0.132  1.000
  Li13  Li1+  0.450  0.450  0.732  1.000
  Li13  Li1+  0.250  0.250  0.532  1.000
  Li13  Li1+  0.850  0.050  0.932  1.000
  Li13  Li1+  0.650  0.850  0.932  1.000
  Li13  Li1+  0.650  0.450  0.332  1.000
  Li13  Li1+  0.050  0.250  0.932  1.000
  Li13  Li1+  0.450  0.650  0.732  1.000
  Li13  Li1+  0.850  0.450  0.132  1.000
  Li13  Li1+  0.050  0.850  0.532  1.000
  Li13  Li1+  0.250  0.050  0.332  1.000
  Li13  Li1+  0.850  0.250  0.532  1.000
  Li13  Li1+  0.450  0.650  0.932  1.000
  Li13  Li1+  0.650  0.850  0.532  1.000
  Li13  Li1+  0.050  0.050  0.132  1.000
  Li13  Li1+  0.050  0.450  0.532  1.000
  Li13  Li1+  0.850  0.650  0.532  1.000
  Li13  Li1+  0.050  0.050  0.332  1.000
  Li14  Li1+  0.350  0.550  0.122  1.000
  Li14  Li1+  0.950  0.150  0.722  1.000
  Li14  Li1+  0.750  0.150  0.122  1.000
  Li14  Li1+  0.550  0.950  0.522  1.000
  Li14  Li1+  0.950  0.550  0.322  1.000
  Li14  Li1+  0.350  0.350  0.922  1.000
  Li14  Li1+  0.150  0.950  0.122  1.000
  Li14  Li1+  0.950  0.950  0.322  1.000
  Li14  Li1+  0.750  0.150  0.722  1.000
  Li14  Li1+  0.150  0.950  0.922  1.000
  Li14  Li1+  0.550  0.350  0.522  1.000
  Li14  Li1+  0.750  0.750  0.722  1.000
  Li14  Li1+  0.350  0.550  0.922  1.000
  Li14  Li1+  0.550  0.950  0.122  1.000
  Li14  Li1+  0.150  0.550  0.722  1.000
  Li14  Li1+  0.750  0.550  0.522  1.000
  Li14  Li1+  0.550  0.550  0.122  1.000
  Li14  Li1+  0.150  0.550  0.922  1.000
  Li14  Li1+  0.150  0.350  0.322  1.000
  Li14  Li1+  0.950  0.150  0.322  1.000
  Li14  Li1+  0.750  0.950  0.122  1.000
  Li14  Li1+  0.150  0.350  0.922  1.000
  Li14  Li1+  0.150  0.950  0.322  1.000
  Li14  Li1+  0.150  0.350  0.122  1.000
  Li14  Li1+  0.350  0.750  0.522  1.000
  Li14  Li1+  0.750  0.950  0.522  1.000
  Li14  Li1+  0.750  0.950  0.922  1.000
  Li14  Li1+  0.950  0.750  0.722  1.000
  Li14  Li1+  0.950  0.350  0.322  1.000
  Li14  Li1+  0.350  0.350  0.122  1.000
  Li14  Li1+  0.750  0.750  0.122  1.000
  Li14  Li1+  0.350  0.150  0.722  1.000
  Li14  Li1+  0.350  0.950  0.122  1.000
  Li14  Li1+  0.150  0.350  0.722  1.000
  Li14  Li1+  0.950  0.750  0.122  1.000
  Li14  Li1+  0.950  0.350  0.922  1.000
  Li14  Li1+  0.550  0.550  0.522  1.000
  Li14  Li1+  0.950  0.950  0.522  1.000
  Li14  Li1+  0.350  0.150  0.322  1.000
  Li14  Li1+  0.550  0.750  0.722  1.000
  Li14  Li1+  0.550  0.950  0.922  1.000
  Li14  Li1+  0.350  0.750  0.322  1.000
  Li14  Li1+  0.350  0.750  0.122  1.000
  Li14  Li1+  0.350  0.150  0.522  1.000
  Li14  Li1+  0.950  0.550  0.522  1.000
  Li14  Li1+  0.550  0.550  0.922  1.000
  Li14  Li1+  0.550  0.350  0.322  1.000
  Li14  Li1+  0.350  0.950  0.522  1.000
  Li14  Li1+  0.750  0.550  0.322  1.000
  Li14  Li1+  0.150  0.550  0.322  1.000
  Li14  Li1+  0.750  0.150  0.922  1.000
  Li14  Li1+  0.950  0.150  0.922  1.000
  Li14  Li1+  0.550  0.750  0.322  1.000
  Li14  Li1+  0.350  0.750  0.922  1.000
  Li14  Li1+  0.350  0.550  0.722  1.000
  Li14  Li1+  0.350  0.750  0.722  1.000
  Li14  Li1+  0.150  0.750  0.922  1.000
  Li14  Li1+  0.550  0.350  0.922  1.000
  Li14  Li1+  0.150  0.550  0.122  1.000
  Li14  Li1+  0.750  0.750  0.522  1.000
  Li14  Li1+  0.150  0.750  0.122  1.000
  Li14  Li1+  0.750  0.550  0.922  1.000
  Li14  Li1+  0.950  0.750  0.922  1.000
  Li14  Li1+  0.150  0.750  0.322  1.000
  Li14  Li1+  0.350  0.350  0.322  1.000
  Li14  Li1+  0.750  0.150  0.522  1.000
  Li14  Li1+  0.750  0.550  0.122  1.000
  Li14  Li1+  0.350  0.550  0.522  1.000
  Li14  Li1+  0.950  0.150  0.522  1.000
  Li14  Li1+  0.550  0.950  0.322  1.000
  Li14  Li1+  0.150  0.750  0.722  1.000
  Li14  Li1+  0.950  0.350  0.522  1.000
  Li14  Li1+  0.950  0.950  0.722  1.000
  Li14  Li1+  0.150  0.550  0.522  1.000
  Li14  Li1+  0.150  0.150  0.522  1.000
  Li14  Li1+  0.350  0.950  0.722  1.000
  Li14  Li1+  0.750  0.350  0.122  1.000
  Li14  Li1+  0.950  0.750  0.322  1.000
  Li14  Li1+  0.550  0.350  0.122  1.000
  Li14  Li1+  0.550  0.750  0.922  1.000
  Li14  Li1+  0.950  0.550  0.722  1.000
  Li14  Li1+  0.950  0.550  0.122  1.000
  Li14  Li1+  0.750  0.950  0.322  1.000
  Li14  Li1+  0.750  0.750  0.922  1.000
  Li14  Li1+  0.950  0.150  0.122  1.000
  Li14  Li1+  0.150  0.950  0.722  1.000
  Li14  Li1+  0.750  0.350  0.922  1.000
  Li14  Li1+  0.550  0.550  0.322  1.000
  Li14  Li1+  0.350  0.150  0.122  1.000
  Li14  Li1+  0.750  0.950  0.722  1.000
  Li14  Li1+  0.150  0.150  0.722  1.000
  Li14  Li1+  0.150  0.750  0.522  1.000
  Li14  Li1+  0.150  0.350  0.522  1.000
  Li14  Li1+  0.950  0.950  0.122  1.000
  Li14  Li1+  0.750  0.350  0.722  1.000
  Li14  Li1+  0.550  0.350  0.722  1.000
  Li14  Li1+  0.150  0.950  0.522  1.000
  Li14  Li1+  0.750  0.350  0.322  1.000
  Li14  Li1+  0.350  0.350  0.522  1.000
  Li14  Li1+  0.750  0.350  0.522  1.000
  Li14  Li1+  0.550  0.150  0.922  1.000
  Li14  Li1+  0.750  0.150  0.322  1.000
  Li14  Li1+  0.950  0.950  0.922  1.000
  Li14  Li1+  0.750  0.750  0.322  1.000
  Li14  Li1+  0.950  0.350  0.122  1.000
  Li14  Li1+  0.550  0.550  0.722  1.000
  Li14  Li1+  0.150  0.150  0.122  1.000
  Li14  Li1+  0.350  0.950  0.922  1.000
  Li14  Li1+  0.750  0.550  0.722  1.000
  Li14  Li1+  0.350  0.150  0.922  1.000
  Li14  Li1+  0.550  0.750  0.122  1.000
  Li14  Li1+  0.550  0.950  0.722  1.000
  Li14  Li1+  0.950  0.750  0.522  1.000
  Li14  Li1+  0.550  0.750  0.522  1.000
  Li14  Li1+  0.550  0.150  0.522  1.000
  Li14  Li1+  0.350  0.550  0.322  1.000
  Li14  Li1+  0.550  0.150  0.722  1.000
  Li14  Li1+  0.550  0.150  0.122  1.000
  Li14  Li1+  0.350  0.350  0.722  1.000
  Li14  Li1+  0.150  0.150  0.322  1.000
  Li14  Li1+  0.150  0.150  0.922  1.000
  Li14  Li1+  0.950  0.350  0.722  1.000
  Li14  Li1+  0.550  0.150  0.322  1.000
  Li14  Li1+  0.350  0.950  0.322  1.000
  Li14  Li1+  0.950  0.550  0.922  1.000
  Li15  Li1+  0.250  0.650  0.350  1.000
  Li15  Li1+  0.450  0.050  0.150  1.000
  Li15  Li1+  0.050  0.050  0.550  1.000
  Li15  Li1+  0.850  0.050  0.550  1.000
  Li15  Li1+  0.850  0.650  0.150  1.000
  Li15  Li1+  0.650  0.450  0.550  1.000
  Li15  Li1+  0.850  0.650  0.750  1.000
  Li15  Li1+  0.250  0.250  0.350  1.000
  Li15  Li1+  0.850  0.450  0.550  1.000
  Li15  Li1+  0.450  0.850  0.750  1.000
  Li15  Li1+  0.450  0.250  0.950  1.000
  Li15  Li1+  0.250  0.050  0.350  1.000
  Li15  Li1+  0.850  0.050  0.150  1.000
  Li15  Li1+  0.650  0.850  0.750  1.000
  Li15  Li1+  0.050  0.850  0.950  1.000
  Li15  Li1+  0.050  0.650  0.950  1.000
  Li15  Li1+  0.450  0.050  0.950  1.000
  Li15  Li1+  0.050  0.850  0.150  1.000
  Li15  Li1+  0.250  0.450  0.750  1.000
  Li15  Li1+  0.050  0.850  0.750  1.000
  Li15  Li1+  0.650  0.250  0.350  1.000
  Li15  Li1+  0.850  0.250  0.550  1.000
  Li15  Li1+  0.650  0.450  0.350  1.000
  Li15  Li1+  0.050  0.850  0.550  1.000
  Li15  Li1+  0.650  0.050  0.750  1.000
  Li15  Li1+  0.850  0.850  0.550  1.000
  Li15  Li1+  0.450  0.050  0.550  1.000
  Li15  Li1+  0.450  0.450  0.950  1.000
  Li15  Li1+  0.250  0.850  0.550  1.000
  Li15  Li1+  0.450  0.050  0.350  1.000
  Li15  Li1+  0.450  0.050  0.750  1.000
  Li15  Li1+  0.650  0.650  0.750  1.000
  Li15  Li1+  0.050  0.650  0.750  1.000
  Li15  Li1+  0.250  0.050  0.750  1.000
  Li15  Li1+  0.050  0.650  0.350  1.000
  Li15  Li1+  0.650  0.650  0.150  1.000
  Li15  Li1+  0.050  0.250  0.150  1.000
  Li15  Li1+  0.450  0.650  0.350  1.000
  Li15  Li1+  0.850  0.450  0.150  1.000
  Li15  Li1+  0.050  0.850  0.350  1.000
  Li15  Li1+  0.050  0.250  0.350  1.000
  Li15  Li1+  0.250  0.450  0.950  1.000
  Li15  Li1+  0.650  0.450  0.150  1.000
  Li15  Li1+  0.650  0.250  0.750  1.000
  Li15  Li1+  0.850  0.650  0.950  1.000
  Li15  Li1+  0.450  0.250  0.750  1.000
  Li15  Li1+  0.850  0.250  0.150  1.000
  Li15  Li1+  0.850  0.450  0.750  1.000
  Li15  Li1+  0.450  0.450  0.350  1.000
  Li15  Li1+  0.850  0.650  0.350  1.000
  Li15  Li1+  0.650  0.250  0.550  1.000
  Li15  Li1+  0.650  0.250  0.950  1.000
  Li15  Li1+  0.050  0.650  0.150  1.000
  Li15  Li1+  0.250  0.250  0.550  1.000
  Li15  Li1+  0.250  0.650  0.150  1.000
  Li15  Li1+  0.050  0.050  0.750  1.000
  Li15  Li1+  0.250  0.450  0.550  1.000
  Li15  Li1+  0.850  0.050  0.750  1.000
  Li15  Li1+  0.250  0.050  0.550  1.000
  Li15  Li1+  0.450  0.850  0.950  1.000
  Li15  Li1+  0.250  0.050  0.150  1.000
  Li15  Li1+  0.650  0.850  0.150  1.000
  Li15  Li1+  0.650  0.450  0.950  1.000
  Li15  Li1+  0.050  0.450  0.150  1.000
  Li15  Li1+  0.850  0.850  0.750  1.000
  Li15  Li1+  0.050  0.050  0.150  1.000
  Li15  Li1+  0.650  0.850  0.550  1.000
  Li15  Li1+  0.250  0.850  0.750  1.000
  Li15  Li1+  0.450  0.650  0.950  1.000
  Li15  Li1+  0.250  0.650  0.750  1.000
  Li15  Li1+  0.250  0.250  0.150  1.000
  Li15  Li1+  0.850  0.250  0.750  1.000
  Li15  Li1+  0.450  0.450  0.750  1.000
  Li15  Li1+  0.050  0.250  0.550  1.000
  Li15  Li1+  0.250  0.250  0.750  1.000
  Li15  Li1+  0.850  0.050  0.350  1.000
  Li15  Li1+  0.050  0.450  0.950  1.000
  Li15  Li1+  0.450  0.250  0.550  1.000
  Li15  Li1+  0.850  0.850  0.150  1.000
  Li15  Li1+  0.050  0.050  0.350  1.000
  Li15  Li1+  0.650  0.850  0.950  1.000
  Li15  Li1+  0.450  0.850  0.350  1.000
  Li15  Li1+  0.250  0.450  0.350  1.000
  Li15  Li1+  0.650  0.650  0.550  1.000
  Li15  Li1+  0.450  0.850  0.150  1.000
  Li15  Li1+  0.250  0.850  0.350  1.000
  Li15  Li1+  0.850  0.450  0.350  1.000
  Li15  Li1+  0.450  0.850  0.550  1.000
  Li15  Li1+  0.850  0.650  0.550  1.000
  Li15  Li1+  0.650  0.050  0.950  1.000
  Li15  Li1+  0.850  0.450  0.950  1.000
  Li15  Li1+  0.250  0.250  0.950  1.000
  Li15  Li1+  0.650  0.050  0.550  1.000
  Li15  Li1+  0.450  0.650  0.750  1.000
  Li15  Li1+  0.850  0.850  0.950  1.000
  Li15  Li1+  0.450  0.650  0.150  1.000
  Li15  Li1+  0.250  0.450  0.150  1.000
  Li15  Li1+  0.450  0.650  0.550  1.000
  Li15  Li1+  0.650  0.050  0.350  1.000
  Li15  Li1+  0.050  0.050  0.950  1.000
  Li15  Li1+  0.250  0.850  0.950  1.000
  Li15  Li1+  0.450  0.250  0.350  1.000
  Li15  Li1+  0.850  0.250  0.350  1.000
  Li15  Li1+  0.450  0.450  0.150  1.000
  Li15  Li1+  0.050  0.450  0.350  1.000
  Li15  Li1+  0.050  0.450  0.750  1.000
  Li15  Li1+  0.650  0.450  0.750  1.000
  Li15  Li1+  0.050  0.650  0.550  1.000
  Li15  Li1+  0.050  0.250  0.950  1.000
  Li15  Li1+  0.250  0.850  0.150  1.000
  Li15  Li1+  0.250  0.650  0.550  1.000
  Li15  Li1+  0.250  0.650  0.950  1.000
  Li15  Li1+  0.650  0.650  0.950  1.000
  Li15  Li1+  0.050  0.450  0.550  1.000
  Li15  Li1+  0.250  0.050  0.950  1.000
  Li15  Li1+  0.650  0.050  0.150  1.000
  Li15  Li1+  0.650  0.250  0.150  1.000
  Li15  Li1+  0.850  0.850  0.350  1.000
  Li15  Li1+  0.850  0.050  0.950  1.000
  Li15  Li1+  0.850  0.250  0.950  1.000
  Li15  Li1+  0.450  0.250  0.150  1.000
  Li15  Li1+  0.450  0.450  0.550  1.000
  Li15  Li1+  0.650  0.650  0.350  1.000
  Li15  Li1+  0.050  0.250  0.750  1.000
  Li15  Li1+  0.650  0.850  0.350  1.000
  Li16  Li1+  0.550  0.550  0.941  1.000
  Li16  Li1+  0.550  0.950  0.741  1.000
  Li16  Li1+  0.150  0.950  0.541  1.000
  Li16  Li1+  0.350  0.350  0.741  1.000
  Li16  Li1+  0.350  0.150  0.341  1.000
  Li16  Li1+  0.550  0.550  0.341  1.000
  Li16  Li1+  0.350  0.750  0.941  1.000
  Li16  Li1+  0.150  0.350  0.541  1.000
  Li16  Li1+  0.750  0.950  0.941  1.000
  Li16  Li1+  0.550  0.750  0.941  1.000
  Li16  Li1+  0.950  0.150  0.341  1.000
  Li16  Li1+  0.550  0.750  0.341  1.000
  Li16  Li1+  0.350  0.950  0.941  1.000
  Li16  Li1+  0.950  0.950  0.541  1.000
  Li16  Li1+  0.950  0.550  0.741  1.000
  Li16  Li1+  0.550  0.950  0.541  1.000
  Li16  Li1+  0.550  0.750  0.741  1.000
  Li16  Li1+  0.750  0.350  0.141  1.000
  Li16  Li1+  0.750  0.550  0.741  1.000
  Li16  Li1+  0.150  0.550  0.141  1.000
  Li16  Li1+  0.550  0.350  0.541  1.000
  Li16  Li1+  0.150  0.750  0.141  1.000
  Li16  Li1+  0.950  0.750  0.341  1.000
  Li16  Li1+  0.150  0.950  0.941  1.000
  Li16  Li1+  0.950  0.750  0.941  1.000
  Li16  Li1+  0.550  0.950  0.341  1.000
  Li16  Li1+  0.350  0.750  0.141  1.000
  Li16  Li1+  0.950  0.350  0.741  1.000
  Li16  Li1+  0.750  0.150  0.741  1.000
  Li16  Li1+  0.350  0.150  0.541  1.000
  Li16  Li1+  0.750  0.750  0.941  1.000
  Li16  Li1+  0.350  0.950  0.541  1.000
  Li16  Li1+  0.350  0.550  0.541  1.000
  Li16  Li1+  0.350  0.350  0.941  1.000
  Li16  Li1+  0.350  0.150  0.741  1.000
  Li16  Li1+  0.550  0.150  0.141  1.000
  Li16  Li1+  0.350  0.150  0.941  1.000
  Li16  Li1+  0.550  0.350  0.341  1.000
  Li16  Li1+  0.550  0.950  0.941  1.000
  Li16  Li1+  0.750  0.750  0.341  1.000
  Li16  Li1+  0.750  0.550  0.541  1.000
  Li16  Li1+  0.750  0.950  0.341  1.000
  Li16  Li1+  0.550  0.550  0.741  1.000
  Li16  Li1+  0.150  0.350  0.341  1.000
  Li16  Li1+  0.550  0.550  0.141  1.000
  Li16  Li1+  0.950  0.350  0.341  1.000
  Li16  Li1+  0.750  0.350  0.341  1.000
  Li16  Li1+  0.950  0.550  0.341  1.000
  Li16  Li1+  0.150  0.750  0.341  1.000
  Li16  Li1+  0.350  0.150  0.141  1.000
  Li16  Li1+  0.150  0.750  0.541  1.000
  Li16  Li1+  0.550  0.950  0.141  1.000
  Li16  Li1+  0.350  0.550  0.141  1.000
  Li16  Li1+  0.950  0.950  0.741  1.000
  Li16  Li1+  0.550  0.350  0.141  1.000
  Li16  Li1+  0.350  0.750  0.341  1.000
  Li16  Li1+  0.150  0.150  0.741  1.000
  Li16  Li1+  0.950  0.550  0.941  1.000
  Li16  Li1+  0.750  0.550  0.341  1.000
  Li16  Li1+  0.950  0.150  0.941  1.000
  Li16  Li1+  0.950  0.950  0.141  1.000
  Li16  Li1+  0.550  0.150  0.941  1.000
  Li16  Li1+  0.150  0.150  0.141  1.000
  Li16  Li1+  0.550  0.150  0.741  1.000
  Li16  Li1+  0.950  0.750  0.541  1.000
  Li16  Li1+  0.550  0.150  0.541  1.000
  Li16  Li1+  0.350  0.550  0.341  1.000
  Li16  Li1+  0.750  0.950  0.741  1.000
  Li16  Li1+  0.350  0.350  0.341  1.000
  Li16  Li1+  0.950  0.150  0.541  1.000
  Li16  Li1+  0.550  0.750  0.141  1.000
  Li16  Li1+  0.150  0.950  0.141  1.000
  Li16  Li1+  0.950  0.150  0.141  1.000
  Li16  Li1+  0.150  0.550  0.541  1.000
  Li16  Li1+  0.550  0.350  0.941  1.000
  Li16  Li1+  0.350  0.550  0.941  1.000
  Li16  Li1+  0.950  0.350  0.941  1.000
  Li16  Li1+  0.550  0.150  0.341  1.000
  Li16  Li1+  0.150  0.550  0.741  1.000
  Li16  Li1+  0.350  0.950  0.341  1.000
  Li16  Li1+  0.150  0.150  0.941  1.000
  Li16  Li1+  0.750  0.750  0.741  1.000
  Li16  Li1+  0.550  0.750  0.541  1.000
  Li16  Li1+  0.750  0.750  0.141  1.000
  Li16  Li1+  0.150  0.750  0.741  1.000
  Li16  Li1+  0.350  0.550  0.741  1.000
  Li16  Li1+  0.750  0.550  0.141  1.000
  Li16  Li1+  0.950  0.950  0.941  1.000
  Li16  Li1+  0.750  0.350  0.541  1.000
  Li16  Li1+  0.150  0.550  0.941  1.000
  Li16  Li1+  0.550  0.550  0.541  1.000
  Li16  Li1+  0.350  0.750  0.741  1.000
  Li16  Li1+  0.150  0.350  0.941  1.000
  Li16  Li1+  0.750  0.350  0.741  1.000
  Li16  Li1+  0.350  0.950  0.741  1.000
  Li16  Li1+  0.150  0.750  0.941  1.000
  Li16  Li1+  0.750  0.350  0.941  1.000
  Li16  Li1+  0.950  0.550  0.541  1.000
  Li16  Li1+  0.150  0.150  0.541  1.000
  Li16  Li1+  0.950  0.350  0.541  1.000
  Li16  Li1+  0.150  0.950  0.741  1.000
  Li16  Li1+  0.950  0.750  0.141  1.000
  Li16  Li1+  0.750  0.150  0.541  1.000
  Li16  Li1+  0.950  0.950  0.341  1.000
  Li16  Li1+  0.150  0.350  0.741  1.000
  Li16  Li1+  0.750  0.150  0.341  1.000
  Li16  Li1+  0.750  0.150  0.941  1.000
  Li16  Li1+  0.750  0.550  0.941  1.000
  Li16  Li1+  0.350  0.350  0.541  1.000
  Li16  Li1+  0.950  0.750  0.741  1.000
  Li16  Li1+  0.750  0.150  0.141  1.000
  Li16  Li1+  0.750  0.950  0.141  1.000
  Li16  Li1+  0.150  0.950  0.341  1.000
  Li16  Li1+  0.550  0.350  0.741  1.000
  Li16  Li1+  0.150  0.150  0.341  1.000
  Li16  Li1+  0.350  0.750  0.541  1.000
  Li16  Li1+  0.350  0.950  0.141  1.000
  Li16  Li1+  0.950  0.350  0.141  1.000
  Li16  Li1+  0.350  0.350  0.141  1.000
  Li16  Li1+  0.750  0.950  0.541  1.000
  Li16  Li1+  0.150  0.350  0.141  1.000
  Li16  Li1+  0.150  0.550  0.341  1.000
  Li16  Li1+  0.950  0.550  0.141  1.000
  Li16  Li1+  0.750  0.750  0.541  1.000
  Li16  Li1+  0.950  0.150  0.741  1.000
  Li17  Li1+  0.250  0.250  0.768  1.000
  Li17  Li1+  0.450  0.250  0.168  1.000
  Li17  Li1+  0.450  0.050  0.968  1.000
  Li17  Li1+  0.650  0.850  0.768  1.000
  Li17  Li1+  0.850  0.650  0.368  1.000
  Li17  Li1+  0.850  0.250  0.368  1.000
  Li17  Li1+  0.450  0.050  0.568  1.000
  Li17  Li1+  0.450  0.650  0.368  1.000
  Li17  Li1+  0.450  0.650  0.768  1.000
  Li17  Li1+  0.050  0.850  0.368  1.000
  Li17  Li1+  0.850  0.850  0.568  1.000
  Li17  Li1+  0.250  0.850  0.168  1.000
  Li17  Li1+  0.850  0.050  0.168  1.000
  Li17  Li1+  0.650  0.050  0.368  1.000
  Li17  Li1+  0.850  0.650  0.968  1.000
  Li17  Li1+  0.850  0.050  0.968  1.000
  Li17  Li1+  0.850  0.050  0.568  1.000
  Li17  Li1+  0.450  0.450  0.168  1.000
  Li17  Li1+  0.050  0.850  0.168  1.000
  Li17  Li1+  0.650  0.250  0.368  1.000
  Li17  Li1+  0.650  0.450  0.968  1.000
  Li17  Li1+  0.850  0.450  0.368  1.000
  Li17  Li1+  0.050  0.450  0.168  1.000
  Li17  Li1+  0.050  0.850  0.968  1.000
  Li17  Li1+  0.650  0.050  0.568  1.000
  Li17  Li1+  0.250  0.250  0.968  1.000
  Li17  Li1+  0.050  0.650  0.568  1.000
  Li17  Li1+  0.450  0.850  0.368  1.000
  Li17  Li1+  0.050  0.650  0.368  1.000
  Li17  Li1+  0.050  0.050  0.168  1.000
  Li17  Li1+  0.450  0.650  0.968  1.000
  Li17  Li1+  0.450  0.450  0.768  1.000
  Li17  Li1+  0.250  0.650  0.168  1.000
  Li17  Li1+  0.050  0.850  0.568  1.000
  Li17  Li1+  0.050  0.250  0.568  1.000
  Li17  Li1+  0.050  0.050  0.968  1.000
  Li17  Li1+  0.250  0.250  0.368  1.000
  Li17  Li1+  0.850  0.450  0.968  1.000
  Li17  Li1+  0.050  0.850  0.768  1.000
  Li17  Li1+  0.050  0.050  0.368  1.000
  Li17  Li1+  0.650  0.850  0.168  1.000
  Li17  Li1+  0.650  0.650  0.568  1.000
  Li17  Li1+  0.850  0.250  0.968  1.000
  Li17  Li1+  0.450  0.850  0.568  1.000
  Li17  Li1+  0.250  0.450  0.168  1.000
  Li17  Li1+  0.650  0.450  0.768  1.000
  Li17  Li1+  0.650  0.250  0.568  1.000
  Li17  Li1+  0.250  0.650  0.768  1.000
  Li17  Li1+  0.250  0.850  0.568  1.000
  Li17  Li1+  0.850  0.650  0.568  1.000
  Li17  Li1+  0.250  0.850  0.968  1.000
  Li17  Li1+  0.850  0.850  0.768  1.000
  Li17  Li1+  0.450  0.250  0.968  1.000
  Li17  Li1+  0.850  0.850  0.168  1.000
  Li17  Li1+  0.050  0.250  0.768  1.000
  Li17  Li1+  0.250  0.650  0.568  1.000
  Li17  Li1+  0.650  0.850  0.568  1.000
  Li17  Li1+  0.050  0.250  0.968  1.000
  Li17  Li1+  0.650  0.050  0.968  1.000
  Li17  Li1+  0.250  0.450  0.968  1.000
  Li17  Li1+  0.850  0.250  0.568  1.000
  Li17  Li1+  0.250  0.050  0.368  1.000
  Li17  Li1+  0.650  0.450  0.568  1.000
  Li17  Li1+  0.250  0.050  0.168  1.000
  Li17  Li1+  0.450  0.850  0.968  1.000
  Li17  Li1+  0.450  0.650  0.168  1.000
  Li17  Li1+  0.650  0.250  0.768  1.000
  Li17  Li1+  0.050  0.450  0.568  1.000
  Li17  Li1+  0.850  0.450  0.568  1.000
  Li17  Li1+  0.250  0.450  0.368  1.000
  Li17  Li1+  0.250  0.250  0.168  1.000
  Li17  Li1+  0.450  0.450  0.568  1.000
  Li17  Li1+  0.650  0.450  0.368  1.000
  Li17  Li1+  0.850  0.250  0.168  1.000
  Li17  Li1+  0.650  0.850  0.968  1.000
  Li17  Li1+  0.250  0.450  0.768  1.000
  Li17  Li1+  0.850  0.050  0.768  1.000
  Li17  Li1+  0.250  0.050  0.568  1.000
  Li17  Li1+  0.650  0.650  0.368  1.000
  Li17  Li1+  0.050  0.650  0.768  1.000
  Li17  Li1+  0.650  0.650  0.968  1.000
  Li17  Li1+  0.850  0.050  0.368  1.000
  Li17  Li1+  0.450  0.650  0.568  1.000
  Li17  Li1+  0.850  0.650  0.168  1.000
  Li17  Li1+  0.450  0.250  0.768  1.000
  Li17  Li1+  0.050  0.250  0.368  1.000
  Li17  Li1+  0.250  0.250  0.568  1.000
  Li17  Li1+  0.050  0.650  0.168  1.000
  Li17  Li1+  0.850  0.850  0.968  1.000
  Li17  Li1+  0.450  0.850  0.168  1.000
  Li17  Li1+  0.650  0.450  0.168  1.000
  Li17  Li1+  0.450  0.050  0.168  1.000
  Li17  Li1+  0.650  0.250  0.968  1.000
  Li17  Li1+  0.850  0.450  0.168  1.000
  Li17  Li1+  0.050  0.050  0.568  1.000
  Li17  Li1+  0.850  0.650  0.768  1.000
  Li17  Li1+  0.250  0.050  0.768  1.000
  Li17  Li1+  0.850  0.850  0.368  1.000
  Li17  Li1+  0.050  0.050  0.768  1.000
  Li17  Li1+  0.450  0.850  0.768  1.000
  Li17  Li1+  0.250  0.650  0.368  1.000
  Li17  Li1+  0.050  0.450  0.768  1.000
  Li17  Li1+  0.050  0.250  0.168  1.000
  Li17  Li1+  0.650  0.050  0.768  1.000
  Li17  Li1+  0.650  0.850  0.368  1.000
  Li17  Li1+  0.450  0.250  0.568  1.000
  Li17  Li1+  0.250  0.850  0.368  1.000
  Li17  Li1+  0.450  0.450  0.368  1.000
  Li17  Li1+  0.250  0.650  0.968  1.000
  Li17  Li1+  0.250  0.050  0.968  1.000
  Li17  Li1+  0.650  0.650  0.168  1.000
  Li17  Li1+  0.050  0.450  0.368  1.000
  Li17  Li1+  0.050  0.450  0.968  1.000
  Li17  Li1+  0.650  0.250  0.168  1.000
  Li17  Li1+  0.450  0.450  0.968  1.000
  Li17  Li1+  0.050  0.650  0.968  1.000
  Li17  Li1+  0.850  0.250  0.768  1.000
  Li17  Li1+  0.850  0.450  0.768  1.000
  Li17  Li1+  0.250  0.450  0.568  1.000
  Li17  Li1+  0.450  0.050  0.368  1.000
  Li17  Li1+  0.450  0.250  0.368  1.000
  Li17  Li1+  0.250  0.850  0.768  1.000
  Li17  Li1+  0.450  0.050  0.768  1.000
  Li17  Li1+  0.650  0.650  0.768  1.000
  Li17  Li1+  0.650  0.050  0.168  1.000
  Li18  Li1+  0.150  0.550  0.559  1.000
  Li18  Li1+  0.750  0.750  0.159  1.000
  Li18  Li1+  0.150  0.950  0.759  1.000
  Li18  Li1+  0.150  0.150  0.559  1.000
  Li18  Li1+  0.350  0.550  0.359  1.000
  Li18  Li1+  0.150  0.950  0.359  1.000
  Li18  Li1+  0.350  0.150  0.759  1.000
  Li18  Li1+  0.950  0.750  0.359  1.000
  Li18  Li1+  0.350  0.150  0.559  1.000
  Li18  Li1+  0.150  0.350  0.359  1.000
  Li18  Li1+  0.950  0.550  0.359  1.000
  Li18  Li1+  0.750  0.350  0.559  1.000
  Li18  Li1+  0.750  0.950  0.959  1.000
  Li18  Li1+  0.350  0.750  0.959  1.000
  Li18  Li1+  0.750  0.550  0.959  1.000
  Li18  Li1+  0.350  0.950  0.359  1.000
  Li18  Li1+  0.150  0.550  0.959  1.000
  Li18  Li1+  0.150  0.550  0.159  1.000
  Li18  Li1+  0.350  0.350  0.559  1.000
  Li18  Li1+  0.550  0.550  0.959  1.000
  Li18  Li1+  0.750  0.150  0.959  1.000
  Li18  Li1+  0.950  0.750  0.959  1.000
  Li18  Li1+  0.350  0.150  0.959  1.000
  Li18  Li1+  0.350  0.550  0.559  1.000
  Li18  Li1+  0.950  0.350  0.959  1.000
  Li18  Li1+  0.550  0.950  0.959  1.000
  Li18  Li1+  0.550  0.550  0.159  1.000
  Li18  Li1+  0.750  0.750  0.759  1.000
  Li18  Li1+  0.950  0.950  0.559  1.000
  Li18  Li1+  0.750  0.950  0.359  1.000
  Li18  Li1+  0.950  0.150  0.359  1.000
  Li18  Li1+  0.150  0.750  0.359  1.000
  Li18  Li1+  0.150  0.350  0.759  1.000
  Li18  Li1+  0.150  0.550  0.759  1.000
  Li18  Li1+  0.950  0.550  0.959  1.000
  Li18  Li1+  0.950  0.350  0.559  1.000
  Li18  Li1+  0.350  0.950  0.159  1.000
  Li18  Li1+  0.150  0.150  0.159  1.000
  Li18  Li1+  0.750  0.550  0.759  1.000
  Li18  Li1+  0.550  0.150  0.159  1.000
  Li18  Li1+  0.950  0.350  0.159  1.000
  Li18  Li1+  0.950  0.150  0.759  1.000
  Li18  Li1+  0.750  0.350  0.759  1.000
  Li18  Li1+  0.550  0.950  0.159  1.000
  Li18  Li1+  0.350  0.950  0.759  1.000
  Li18  Li1+  0.150  0.750  0.559  1.000
  Li18  Li1+  0.350  0.550  0.759  1.000
  Li18  Li1+  0.550  0.950  0.759  1.000
  Li18  Li1+  0.150  0.550  0.359  1.000
  Li18  Li1+  0.750  0.350  0.959  1.000
  Li18  Li1+  0.750  0.550  0.559  1.000
  Li18  Li1+  0.150  0.950  0.959  1.000
  Li18  Li1+  0.750  0.550  0.359  1.000
  Li18  Li1+  0.750  0.550  0.159  1.000
  Li18  Li1+  0.550  0.750  0.359  1.000
  Li18  Li1+  0.950  0.750  0.559  1.000
  Li18  Li1+  0.750  0.750  0.559  1.000
  Li18  Li1+  0.350  0.750  0.359  1.000
  Li18  Li1+  0.950  0.550  0.559  1.000
  Li18  Li1+  0.550  0.550  0.759  1.000
  Li18  Li1+  0.150  0.350  0.159  1.000
  Li18  Li1+  0.550  0.950  0.359  1.000
  Li18  Li1+  0.550  0.350  0.959  1.000
  Li18  Li1+  0.750  0.950  0.759  1.000
  Li18  Li1+  0.750  0.150  0.759  1.000
  Li18  Li1+  0.950  0.950  0.159  1.000
  Li18  Li1+  0.550  0.950  0.559  1.000
  Li18  Li1+  0.550  0.150  0.359  1.000
  Li18  Li1+  0.350  0.350  0.759  1.000
  Li18  Li1+  0.750  0.150  0.159  1.000
  Li18  Li1+  0.950  0.950  0.759  1.000
  Li18  Li1+  0.750  0.950  0.159  1.000
  Li18  Li1+  0.150  0.950  0.559  1.000
  Li18  Li1+  0.750  0.350  0.159  1.000
  Li18  Li1+  0.350  0.150  0.159  1.000
  Li18  Li1+  0.550  0.750  0.759  1.000
  Li18  Li1+  0.350  0.150  0.359  1.000
  Li18  Li1+  0.350  0.950  0.559  1.000
  Li18  Li1+  0.950  0.550  0.159  1.000
  Li18  Li1+  0.750  0.150  0.559  1.000
  Li18  Li1+  0.950  0.150  0.159  1.000
  Li18  Li1+  0.150  0.150  0.759  1.000
  Li18  Li1+  0.950  0.750  0.159  1.000
  Li18  Li1+  0.550  0.350  0.759  1.000
  Li18  Li1+  0.350  0.350  0.359  1.000
  Li18  Li1+  0.350  0.750  0.159  1.000
  Li18  Li1+  0.750  0.750  0.359  1.000
  Li18  Li1+  0.350  0.350  0.959  1.000
  Li18  Li1+  0.350  0.550  0.959  1.000
  Li18  Li1+  0.550  0.150  0.559  1.000
  Li18  Li1+  0.550  0.550  0.559  1.000
  Li18  Li1+  0.950  0.350  0.759  1.000
  Li18  Li1+  0.750  0.150  0.359  1.000
  Li18  Li1+  0.950  0.150  0.559  1.000
  Li18  Li1+  0.350  0.750  0.759  1.000
  Li18  Li1+  0.350  0.750  0.559  1.000
  Li18  Li1+  0.150  0.350  0.559  1.000
  Li18  Li1+  0.950  0.350  0.359  1.000
  Li18  Li1+  0.950  0.750  0.759  1.000
  Li18  Li1+  0.550  0.350  0.559  1.000
  Li18  Li1+  0.750  0.350  0.359  1.000
  Li18  Li1+  0.550  0.750  0.159  1.000
  Li18  Li1+  0.350  0.950  0.959  1.000
  Li18  Li1+  0.950  0.150  0.959  1.000
  Li18  Li1+  0.550  0.150  0.759  1.000
  Li18  Li1+  0.150  0.750  0.759  1.000
  Li18  Li1+  0.550  0.150  0.959  1.000
  Li18  Li1+  0.150  0.750  0.159  1.000
  Li18  Li1+  0.950  0.950  0.359  1.000
  Li18  Li1+  0.550  0.350  0.159  1.000
  Li18  Li1+  0.950  0.550  0.759  1.000
  Li18  Li1+  0.950  0.950  0.959  1.000
  Li18  Li1+  0.550  0.350  0.359  1.000
  Li18  Li1+  0.550  0.750  0.959  1.000
  Li18  Li1+  0.750  0.950  0.559  1.000
  Li18  Li1+  0.150  0.150  0.359  1.000
  Li18  Li1+  0.350  0.550  0.159  1.000
  Li18  Li1+  0.750  0.750  0.959  1.000
  Li18  Li1+  0.150  0.150  0.959  1.000
  Li18  Li1+  0.350  0.350  0.159  1.000
  Li18  Li1+  0.150  0.950  0.159  1.000
  Li18  Li1+  0.150  0.350  0.959  1.000
  Li18  Li1+  0.550  0.550  0.359  1.000
  Li18  Li1+  0.150  0.750  0.959  1.000
  Li18  Li1+  0.550  0.750  0.559  1.000
  Li19  Li1+  0.646  0.246  0.987  1.000
  Li19  Li1+  0.646  0.046  0.387  1.000
  Li19  Li1+  0.046  0.446  0.187  1.000
  Li19  Li1+  0.446  0.246  0.587  1.000
  Li19  Li1+  0.446  0.046  0.187  1.000
  Li19  Li1+  0.446  0.646  0.387  1.000
  Li19  Li1+  0.446  0.246  0.387  1.000
  Li19  Li1+  0.246  0.046  0.187  1.000
  Li19  Li1+  0.846  0.446  0.587  1.000
  Li19  Li1+  0.046  0.246  0.987  1.000
  Li19  Li1+  0.046  0.246  0.787  1.000
  Li19  Li1+  0.246  0.246  0.587  1.000
  Li19  Li1+  0.646  0.246  0.387  1.000
  Li19  Li1+  0.646  0.446  0.987  1.000
  Li19  Li1+  0.646  0.646  0.987  1.000
  Li19  Li1+  0.846  0.646  0.587  1.000
  Li19  Li1+  0.246  0.846  0.587  1.000
  Li19  Li1+  0.846  0.046  0.587  1.000
  Li19  Li1+  0.246  0.646  0.787  1.000
  Li19  Li1+  0.846  0.446  0.187  1.000
  Li19  Li1+  0.646  0.846  0.587  1.000
  Li19  Li1+  0.446  0.846  0.587  1.000
  Li19  Li1+  0.646  0.446  0.187  1.000
  Li19  Li1+  0.246  0.446  0.187  1.000
  Li19  Li1+  0.446  0.446  0.587  1.000
  Li19  Li1+  0.246  0.046  0.587  1.000
  Li19  Li1+  0.646  0.446  0.387  1.000
  Li19  Li1+  0.046  0.046  0.387  1.000
  Li19  Li1+  0.846  0.046  0.987  1.000
  Li19  Li1+  0.846  0.246  0.787  1.000
  Li19  Li1+  0.046  0.646  0.387  1.000
  Li19  Li1+  0.646  0.446  0.787  1.000
  Li19  Li1+  0.846  0.846  0.187  1.000
  Li19  Li1+  0.846  0.246  0.387  1.000
  Li19  Li1+  0.046  0.646  0.787  1.000
  Li19  Li1+  0.646  0.446  0.587  1.000
  Li19  Li1+  0.046  0.446  0.387  1.000
  Li19  Li1+  0.646  0.046  0.787  1.000
  Li19  Li1+  0.846  0.646  0.187  1.000
  Li19  Li1+  0.046  0.646  0.187  1.000
  Li19  Li1+  0.046  0.846  0.787  1.000
  Li19  Li1+  0.046  0.846  0.587  1.000
  Li19  Li1+  0.246  0.446  0.587  1.000
  Li19  Li1+  0.846  0.846  0.787  1.000
  Li19  Li1+  0.246  0.846  0.187  1.000
  Li19  Li1+  0.646  0.646  0.787  1.000
  Li19  Li1+  0.646  0.046  0.587  1.000
  Li19  Li1+  0.246  0.046  0.787  1.000
  Li19  Li1+  0.446  0.646  0.187  1.000
  Li19  Li1+  0.246  0.846  0.387  1.000
  Li19  Li1+  0.446  0.446  0.387  1.000
  Li19  Li1+  0.646  0.846  0.987  1.000
  Li19  Li1+  0.046  0.846  0.987  1.000
  Li19  Li1+  0.246  0.646  0.187  1.000
  Li19  Li1+  0.446  0.046  0.387  1.000
  Li19  Li1+  0.446  0.846  0.387  1.000
  Li19  Li1+  0.246  0.446  0.987  1.000
  Li19  Li1+  0.646  0.846  0.387  1.000
  Li19  Li1+  0.046  0.846  0.187  1.000
  Li19  Li1+  0.846  0.446  0.787  1.000
  Li19  Li1+  0.646  0.246  0.587  1.000
  Li19  Li1+  0.446  0.646  0.787  1.000
  Li19  Li1+  0.846  0.646  0.787  1.000
  Li19  Li1+  0.246  0.446  0.387  1.000
  Li19  Li1+  0.246  0.246  0.387  1.000
  Li19  Li1+  0.046  0.846  0.387  1.000
  Li19  Li1+  0.246  0.846  0.987  1.000
  Li19  Li1+  0.046  0.646  0.587  1.000
  Li19  Li1+  0.246  0.046  0.387  1.000
  Li19  Li1+  0.646  0.046  0.187  1.000
  Li19  Li1+  0.446  0.446  0.187  1.000
  Li19  Li1+  0.846  0.046  0.387  1.000
  Li19  Li1+  0.646  0.646  0.587  1.000
  Li19  Li1+  0.246  0.246  0.787  1.000
  Li19  Li1+  0.046  0.046  0.587  1.000
  Li19  Li1+  0.246  0.246  0.187  1.000
  Li19  Li1+  0.846  0.446  0.387  1.000
  Li19  Li1+  0.646  0.246  0.187  1.000
  Li19  Li1+  0.446  0.646  0.587  1.000
  Li19  Li1+  0.846  0.846  0.387  1.000
  Li19  Li1+  0.446  0.846  0.787  1.000
  Li19  Li1+  0.046  0.446  0.787  1.000
  Li19  Li1+  0.246  0.646  0.387  1.000
  Li19  Li1+  0.846  0.046  0.787  1.000
  Li19  Li1+  0.246  0.646  0.587  1.000
  Li19  Li1+  0.846  0.846  0.987  1.000
  Li19  Li1+  0.446  0.446  0.987  1.000
  Li19  Li1+  0.446  0.046  0.587  1.000
  Li19  Li1+  0.046  0.046  0.987  1.000
  Li19  Li1+  0.846  0.246  0.987  1.000
  Li19  Li1+  0.446  0.646  0.987  1.000
  Li19  Li1+  0.846  0.646  0.387  1.000
  Li19  Li1+  0.246  0.046  0.987  1.000
  Li19  Li1+  0.846  0.246  0.187  1.000
  Li19  Li1+  0.846  0.246  0.587  1.000
  Li19  Li1+  0.046  0.246  0.387  1.000
  Li19  Li1+  0.646  0.246  0.787  1.000
  Li19  Li1+  0.046  0.246  0.587  1.000
  Li19  Li1+  0.446  0.246  0.987  1.000
  Li19  Li1+  0.646  0.846  0.787  1.000
  Li19  Li1+  0.046  0.246  0.187  1.000
  Li19  Li1+  0.646  0.646  0.387  1.000
  Li19  Li1+  0.446  0.846  0.987  1.000
  Li19  Li1+  0.046  0.646  0.987  1.000
  Li19  Li1+  0.046  0.446  0.987  1.000
  Li19  Li1+  0.646  0.846  0.187  1.000
  Li19  Li1+  0.446  0.846  0.187  1.000
  Li19  Li1+  0.246  0.646  0.987  1.000
  Li19  Li1+  0.446  0.046  0.787  1.000
  Li19  Li1+  0.046  0.446  0.587  1.000
  Li19  Li1+  0.246  0.246  0.987  1.000
  Li19  Li1+  0.446  0.046  0.987  1.000
  Li19  Li1+  0.846  0.646  0.987  1.000
  Li19  Li1+  0.846  0.446  0.987  1.000
  Li19  Li1+  0.246  0.846  0.787  1.000
  Li19  Li1+  0.046  0.046  0.187  1.000
  Li19  Li1+  0.646  0.046  0.987  1.000
  Li19  Li1+  0.646  0.646  0.187  1.000
  Li19  Li1+  0.446  0.246  0.787  1.000
  Li19  Li1+  0.446  0.446  0.787  1.000
  Li19  Li1+  0.246  0.446  0.787  1.000
  Li19  Li1+  0.046  0.046  0.787  1.000
  Li19  Li1+  0.846  0.046  0.187  1.000
  Li19  Li1+  0.846  0.846  0.587  1.000
  Li19  Li1+  0.446  0.246  0.187  1.000
  Li20  Li1+  0.150  0.550  0.977  1.000
  Li20  Li1+  0.550  0.550  0.577  1.000
  Li20  Li1+  0.550  0.150  0.577  1.000
  Li20  Li1+  0.750  0.150  0.577  1.000
  Li20  Li1+  0.750  0.750  0.377  1.000
  Li20  Li1+  0.350  0.550  0.777  1.000
  Li20  Li1+  0.150  0.150  0.377  1.000
  Li20  Li1+  0.950  0.150  0.377  1.000
  Li20  Li1+  0.150  0.350  0.177  1.000
  Li20  Li1+  0.350  0.950  0.777  1.000
  Li20  Li1+  0.350  0.550  0.577  1.000
  Li20  Li1+  0.350  0.550  0.177  1.000
  Li20  Li1+  0.350  0.350  0.377  1.000
  Li20  Li1+  0.150  0.950  0.977  1.000
  Li20  Li1+  0.350  0.150  0.177  1.000
  Li20  Li1+  0.550  0.150  0.777  1.000
  Li20  Li1+  0.950  0.750  0.177  1.000
  Li20  Li1+  0.350  0.350  0.177  1.000
  Li20  Li1+  0.350  0.150  0.977  1.000
  Li20  Li1+  0.550  0.950  0.177  1.000
  Li20  Li1+  0.550  0.550  0.377  1.000
  Li20  Li1+  0.950  0.950  0.177  1.000
  Li20  Li1+  0.750  0.950  0.177  1.000
  Li20  Li1+  0.750  0.750  0.177  1.000
  Li20  Li1+  0.750  0.950  0.777  1.000
  Li20  Li1+  0.150  0.750  0.577  1.000
  Li20  Li1+  0.750  0.550  0.177  1.000
  Li20  Li1+  0.950  0.150  0.777  1.000
  Li20  Li1+  0.350  0.150  0.577  1.000
  Li20  Li1+  0.350  0.550  0.977  1.000
  Li20  Li1+  0.350  0.950  0.577  1.000
  Li20  Li1+  0.950  0.550  0.777  1.000
  Li20  Li1+  0.550  0.750  0.177  1.000
  Li20  Li1+  0.350  0.950  0.177  1.000
  Li20  Li1+  0.150  0.150  0.777  1.000
  Li20  Li1+  0.750  0.550  0.977  1.000
  Li20  Li1+  0.550  0.150  0.177  1.000
  Li20  Li1+  0.550  0.550  0.177  1.000
  Li20  Li1+  0.950  0.950  0.777  1.000
  Li20  Li1+  0.150  0.350  0.977  1.000
  Li20  Li1+  0.150  0.350  0.777  1.000
  Li20  Li1+  0.950  0.350  0.177  1.000
  Li20  Li1+  0.750  0.550  0.377  1.000
  Li20  Li1+  0.350  0.350  0.777  1.000
  Li20  Li1+  0.550  0.950  0.577  1.000
  Li20  Li1+  0.950  0.550  0.377  1.000
  Li20  Li1+  0.950  0.750  0.777  1.000
  Li20  Li1+  0.550  0.150  0.977  1.000
  Li20  Li1+  0.150  0.150  0.177  1.000
  Li20  Li1+  0.950  0.350  0.577  1.000
  Li20  Li1+  0.950  0.350  0.977  1.000
  Li20  Li1+  0.750  0.550  0.777  1.000
  Li20  Li1+  0.750  0.550  0.577  1.000
  Li20  Li1+  0.750  0.750  0.977  1.000
  Li20  Li1+  0.750  0.150  0.177  1.000
  Li20  Li1+  0.750  0.350  0.577  1.000
  Li20  Li1+  0.150  0.950  0.177  1.000
  Li20  Li1+  0.950  0.150  0.177  1.000
  Li20  Li1+  0.350  0.950  0.377  1.000
  Li20  Li1+  0.350  0.550  0.377  1.000
  Li20  Li1+  0.550  0.350  0.977  1.000
  Li20  Li1+  0.750  0.350  0.177  1.000
  Li20  Li1+  0.550  0.350  0.177  1.000
  Li20  Li1+  0.150  0.550  0.577  1.000
  Li20  Li1+  0.350  0.750  0.577  1.000
  Li20  Li1+  0.350  0.750  0.377  1.000
  Li20  Li1+  0.750  0.950  0.577  1.000
  Li20  Li1+  0.950  0.750  0.377  1.000
  Li20  Li1+  0.550  0.550  0.977  1.000
  Li20  Li1+  0.950  0.950  0.377  1.000
  Li20  Li1+  0.350  0.750  0.177  1.000
  Li20  Li1+  0.350  0.150  0.377  1.000
  Li20  Li1+  0.150  0.950  0.777  1.000
  Li20  Li1+  0.550  0.350  0.777  1.000
  Li20  Li1+  0.550  0.350  0.377  1.000
  Li20  Li1+  0.550  0.750  0.577  1.000
  Li20  Li1+  0.550  0.350  0.577  1.000
  Li20  Li1+  0.150  0.750  0.177  1.000
  Li20  Li1+  0.150  0.750  0.377  1.000
  Li20  Li1+  0.150  0.550  0.777  1.000
  Li20  Li1+  0.550  0.750  0.977  1.000
  Li20  Li1+  0.950  0.150  0.577  1.000
  Li20  Li1+  0.350  0.750  0.977  1.000
  Li20  Li1+  0.950  0.950  0.977  1.000
  Li20  Li1+  0.750  0.750  0.777  1.000
  Li20  Li1+  0.150  0.350  0.377  1.000
  Li20  Li1+  0.950  0.550  0.977  1.000
  Li20  Li1+  0.150  0.550  0.377  1.000
  Li20  Li1+  0.750  0.350  0.777  1.000
  Li20  Li1+  0.150  0.750  0.977  1.000
  Li20  Li1+  0.350  0.350  0.977  1.000
  Li20  Li1+  0.150  0.150  0.577  1.000
  Li20  Li1+  0.750  0.150  0.977  1.000
  Li20  Li1+  0.350  0.150  0.777  1.000
  Li20  Li1+  0.550  0.150  0.377  1.000
  Li20  Li1+  0.150  0.350  0.577  1.000
  Li20  Li1+  0.350  0.350  0.577  1.000
  Li20  Li1+  0.150  0.150  0.977  1.000
  Li20  Li1+  0.950  0.750  0.977  1.000
  Li20  Li1+  0.950  0.150  0.977  1.000
  Li20  Li1+  0.550  0.550  0.777  1.000
  Li20  Li1+  0.950  0.550  0.577  1.000
  Li20  Li1+  0.350  0.950  0.977  1.000
  Li20  Li1+  0.550  0.950  0.977  1.000
  Li20  Li1+  0.550  0.750  0.777  1.000
  Li20  Li1+  0.750  0.950  0.977  1.000
  Li20  Li1+  0.350  0.750  0.777  1.000
  Li20  Li1+  0.950  0.350  0.377  1.000
  Li20  Li1+  0.150  0.550  0.177  1.000
  Li20  Li1+  0.950  0.550  0.177  1.000
  Li20  Li1+  0.750  0.950  0.377  1.000
  Li20  Li1+  0.750  0.750  0.577  1.000
  Li20  Li1+  0.950  0.350  0.777  1.000
  Li20  Li1+  0.550  0.750  0.377  1.000
  Li20  Li1+  0.550  0.950  0.777  1.000
  Li20  Li1+  0.750  0.350  0.377  1.000
  Li20  Li1+  0.750  0.150  0.377  1.000
  Li20  Li1+  0.950  0.950  0.577  1.000
  Li20  Li1+  0.150  0.950  0.577  1.000
  Li20  Li1+  0.150  0.750  0.777  1.000
  Li20  Li1+  0.150  0.950  0.377  1.000
  Li20  Li1+  0.750  0.150  0.777  1.000
  Li20  Li1+  0.750  0.350  0.977  1.000
  Li20  Li1+  0.950  0.750  0.577  1.000
  Li20  Li1+  0.550  0.950  0.377  1.000
  Li21  Li1+  0.950  0.350  0.196  1.000
  Li21  Li1+  0.150  0.550  0.796  1.000
  Li21  Li1+  0.550  0.750  0.796  1.000
  Li21  Li1+  0.750  0.750  0.196  1.000
  Li21  Li1+  0.750  0.550  0.796  1.000
  Li21  Li1+  0.350  0.150  0.596  1.000
  Li21  Li1+  0.750  0.550  0.996  1.000
  Li21  Li1+  0.950  0.950  0.596  1.000
  Li21  Li1+  0.750  0.950  0.396  1.000
  Li21  Li1+  0.350  0.950  0.996  1.000
  Li21  Li1+  0.950  0.750  0.196  1.000
  Li21  Li1+  0.150  0.150  0.396  1.000
  Li21  Li1+  0.950  0.350  0.596  1.000
  Li21  Li1+  0.550  0.150  0.996  1.000
  Li21  Li1+  0.550  0.950  0.396  1.000
  Li21  Li1+  0.150  0.750  0.796  1.000
  Li21  Li1+  0.150  0.950  0.996  1.000
  Li21  Li1+  0.150  0.350  0.596  1.000
  Li21  Li1+  0.350  0.350  0.996  1.000
  Li21  Li1+  0.550  0.550  0.596  1.000
  Li21  Li1+  0.550  0.150  0.396  1.000
  Li21  Li1+  0.950  0.550  0.796  1.000
  Li21  Li1+  0.950  0.350  0.996  1.000
  Li21  Li1+  0.350  0.350  0.596  1.000
  Li21  Li1+  0.350  0.150  0.396  1.000
  Li21  Li1+  0.550  0.750  0.396  1.000
  Li21  Li1+  0.950  0.550  0.396  1.000
  Li21  Li1+  0.350  0.950  0.196  1.000
  Li21  Li1+  0.950  0.150  0.596  1.000
  Li21  Li1+  0.350  0.150  0.196  1.000
  Li21  Li1+  0.950  0.950  0.196  1.000
  Li21  Li1+  0.150  0.350  0.796  1.000
  Li21  Li1+  0.150  0.150  0.596  1.000
  Li21  Li1+  0.150  0.950  0.796  1.000
  Li21  Li1+  0.750  0.950  0.996  1.000
  Li21  Li1+  0.550  0.550  0.396  1.000
  Li21  Li1+  0.750  0.350  0.796  1.000
  Li21  Li1+  0.350  0.950  0.396  1.000
  Li21  Li1+  0.750  0.150  0.396  1.000
  Li21  Li1+  0.750  0.950  0.196  1.000
  Li21  Li1+  0.350  0.550  0.796  1.000
  Li21  Li1+  0.150  0.750  0.596  1.000
  Li21  Li1+  0.550  0.350  0.196  1.000
  Li21  Li1+  0.350  0.950  0.796  1.000
  Li21  Li1+  0.550  0.550  0.196  1.000
  Li21  Li1+  0.350  0.350  0.396  1.000
  Li21  Li1+  0.150  0.550  0.596  1.000
  Li21  Li1+  0.150  0.550  0.996  1.000
  Li21  Li1+  0.950  0.750  0.796  1.000
  Li21  Li1+  0.150  0.950  0.596  1.000
  Li21  Li1+  0.550  0.350  0.996  1.000
  Li21  Li1+  0.750  0.350  0.396  1.000
  Li21  Li1+  0.550  0.750  0.196  1.000
  Li21  Li1+  0.350  0.150  0.996  1.000
  Li21  Li1+  0.350  0.950  0.596  1.000
  Li21  Li1+  0.950  0.950  0.796  1.000
  Li21  Li1+  0.950  0.150  0.996  1.000
  Li21  Li1+  0.550  0.150  0.596  1.000
  Li21  Li1+  0.350  0.750  0.596  1.000
  Li21  Li1+  0.150  0.150  0.796  1.000
  Li21  Li1+  0.550  0.350  0.396  1.000
  Li21  Li1+  0.150  0.350  0.396  1.000
  Li21  Li1+  0.350  0.550  0.596  1.000
  Li21  Li1+  0.550  0.350  0.796  1.000
  Li21  Li1+  0.550  0.950  0.996  1.000
  Li21  Li1+  0.950  0.750  0.396  1.000
  Li21  Li1+  0.750  0.750  0.996  1.000
  Li21  Li1+  0.550  0.350  0.596  1.000
  Li21  Li1+  0.150  0.750  0.996  1.000
  Li21  Li1+  0.150  0.350  0.196  1.000
  Li21  Li1+  0.750  0.350  0.996  1.000
  Li21  Li1+  0.350  0.350  0.196  1.000
  Li21  Li1+  0.950  0.350  0.396  1.000
  Li21  Li1+  0.750  0.150  0.196  1.000
  Li21  Li1+  0.750  0.950  0.796  1.000
  Li21  Li1+  0.550  0.950  0.596  1.000
  Li21  Li1+  0.950  0.150  0.396  1.000
  Li21  Li1+  0.950  0.550  0.996  1.000
  Li21  Li1+  0.150  0.150  0.996  1.000
  Li21  Li1+  0.150  0.950  0.196  1.000
  Li21  Li1+  0.950  0.350  0.796  1.000
  Li21  Li1+  0.950  0.950  0.396  1.000
  Li21  Li1+  0.350  0.350  0.796  1.000
  Li21  Li1+  0.350  0.750  0.196  1.000
  Li21  Li1+  0.350  0.550  0.996  1.000
  Li21  Li1+  0.950  0.550  0.596  1.000
  Li21  Li1+  0.750  0.150  0.596  1.000
  Li21  Li1+  0.950  0.550  0.196  1.000
  Li21  Li1+  0.350  0.550  0.196  1.000
  Li21  Li1+  0.550  0.950  0.196  1.000
  Li21  Li1+  0.150  0.350  0.996  1.000
  Li21  Li1+  0.350  0.750  0.996  1.000
  Li21  Li1+  0.150  0.750  0.396  1.000
  Li21  Li1+  0.550  0.150  0.196  1.000
  Li21  Li1+  0.550  0.550  0.996  1.000
  Li21  Li1+  0.750  0.750  0.796  1.000
  Li21  Li1+  0.750  0.350  0.196  1.000
  Li21  Li1+  0.750  0.550  0.196  1.000
  Li21  Li1+  0.550  0.750  0.996  1.000
  Li21  Li1+  0.750  0.350  0.596  1.000
  Li21  Li1+  0.150  0.550  0.396  1.000
  Li21  Li1+  0.150  0.750  0.196  1.000
  Li21  Li1+  0.950  0.750  0.996  1.000
  Li21  Li1+  0.950  0.950  0.996  1.000
  Li21  Li1+  0.150  0.950  0.396  1.000
  Li21  Li1+  0.350  0.750  0.796  1.000
  Li21  Li1+  0.550  0.150  0.796  1.000
  Li21  Li1+  0.950  0.150  0.796  1.000
  Li21  Li1+  0.750  0.150  0.996  1.000
  Li21  Li1+  0.750  0.950  0.596  1.000
  Li21  Li1+  0.750  0.750  0.596  1.000
  Li21  Li1+  0.750  0.550  0.396  1.000
  Li21  Li1+  0.750  0.150  0.796  1.000
  Li21  Li1+  0.150  0.150  0.196  1.000
  Li21  Li1+  0.150  0.550  0.196  1.000
  Li21  Li1+  0.350  0.750  0.396  1.000
  Li21  Li1+  0.950  0.150  0.196  1.000
  Li21  Li1+  0.550  0.750  0.596  1.000
  Li21  Li1+  0.550  0.950  0.796  1.000
  Li21  Li1+  0.750  0.750  0.396  1.000
  Li21  Li1+  0.550  0.550  0.796  1.000
  Li21  Li1+  0.950  0.750  0.596  1.000
  Li21  Li1+  0.750  0.550  0.596  1.000
  Li21  Li1+  0.350  0.150  0.796  1.000
  Li21  Li1+  0.350  0.550  0.396  1.000

#end of data
