data_generated-by-softBV

_chemical_name_systematic         'Ge4+:2.000 Li1+:20.000 P5+:4.000 S2-:24.000 '
_cell_length_a                    42.950
_cell_length_b                    44.398
_cell_length_c                    64.875
_cell_angle_alpha                 91.984
_cell_angle_beta                  90.643
_cell_angle_gamma                 90.249
_cell_volume                      123624.528
_cell_formula_units_Z             0
_symmetry_space_group_name_H-M    'P 1'
_symmetry_Int_Tables_number       1

loop_
  _symmetry_equiv_pos_site_id
  _symmetry_equiv_pos_as_xyz
    1    'x, y, z'

loop_
  _atom_type_symbol
  _atom_type_oxidation_number
  Ge4+     4
  Li1+     1
  P5+     5
  S2-     -2

loop_
  _atom_site_label
  _atom_site_type_symbol
  _atom_site_fract_x
  _atom_site_fract_y
  _atom_site_fract_z
  _atom_site_occupancy
  Ge20  Ge4+  0.199  0.098  0.037  1.000
  Ge20  Ge4+  0.199  0.098  0.237  1.000
  Ge20  Ge4+  0.199  0.098  0.437  1.000
  Ge20  Ge4+  0.199  0.098  0.637  1.000
  Ge20  Ge4+  0.199  0.098  0.837  1.000
  Ge20  Ge4+  0.199  0.298  0.037  1.000
  Ge20  Ge4+  0.199  0.298  0.237  1.000
  Ge20  Ge4+  0.199  0.298  0.437  1.000
  Ge20  Ge4+  0.199  0.298  0.637  1.000
  Ge20  Ge4+  0.199  0.298  0.837  1.000
  Ge20  Ge4+  0.199  0.498  0.037  1.000
  Ge20  Ge4+  0.199  0.498  0.237  1.000
  Ge20  Ge4+  0.199  0.498  0.437  1.000
  Ge20  Ge4+  0.199  0.498  0.637  1.000
  Ge20  Ge4+  0.199  0.498  0.837  1.000
  Ge20  Ge4+  0.199  0.698  0.037  1.000
  Ge20  Ge4+  0.199  0.698  0.237  1.000
  Ge20  Ge4+  0.199  0.698  0.437  1.000
  Ge20  Ge4+  0.199  0.698  0.637  1.000
  Ge20  Ge4+  0.199  0.698  0.837  1.000
  Ge20  Ge4+  0.199  0.898  0.037  1.000
  Ge20  Ge4+  0.199  0.898  0.237  1.000
  Ge20  Ge4+  0.199  0.898  0.437  1.000
  Ge20  Ge4+  0.199  0.898  0.637  1.000
  Ge20  Ge4+  0.199  0.898  0.837  1.000
  Ge20  Ge4+  0.399  0.098  0.037  1.000
  Ge20  Ge4+  0.399  0.098  0.237  1.000
  Ge20  Ge4+  0.399  0.098  0.437  1.000
  Ge20  Ge4+  0.399  0.098  0.637  1.000
  Ge20  Ge4+  0.399  0.098  0.837  1.000
  Ge20  Ge4+  0.399  0.298  0.037  1.000
  Ge20  Ge4+  0.399  0.298  0.237  1.000
  Ge20  Ge4+  0.399  0.298  0.437  1.000
  Ge20  Ge4+  0.399  0.298  0.637  1.000
  Ge20  Ge4+  0.399  0.298  0.837  1.000
  Ge20  Ge4+  0.399  0.498  0.037  1.000
  Ge20  Ge4+  0.399  0.498  0.237  1.000
  Ge20  Ge4+  0.399  0.498  0.437  1.000
  Ge20  Ge4+  0.399  0.498  0.637  1.000
  Ge20  Ge4+  0.399  0.498  0.837  1.000
  Ge20  Ge4+  0.399  0.698  0.037  1.000
  Ge20  Ge4+  0.399  0.698  0.237  1.000
  Ge20  Ge4+  0.399  0.698  0.437  1.000
  Ge20  Ge4+  0.399  0.698  0.637  1.000
  Ge20  Ge4+  0.399  0.698  0.837  1.000
  Ge20  Ge4+  0.399  0.898  0.037  1.000
  Ge20  Ge4+  0.399  0.898  0.237  1.000
  Ge20  Ge4+  0.399  0.898  0.437  1.000
  Ge20  Ge4+  0.399  0.898  0.637  1.000
  Ge20  Ge4+  0.399  0.898  0.837  1.000
  Ge20  Ge4+  0.599  0.098  0.037  1.000
  Ge20  Ge4+  0.599  0.098  0.237  1.000
  Ge20  Ge4+  0.599  0.098  0.437  1.000
  Ge20  Ge4+  0.599  0.098  0.637  1.000
  Ge20  Ge4+  0.599  0.098  0.837  1.000
  Ge20  Ge4+  0.599  0.298  0.037  1.000
  Ge20  Ge4+  0.599  0.298  0.237  1.000
  Ge20  Ge4+  0.599  0.298  0.437  1.000
  Ge20  Ge4+  0.599  0.298  0.637  1.000
  Ge20  Ge4+  0.599  0.298  0.837  1.000
  Ge20  Ge4+  0.599  0.498  0.037  1.000
  Ge20  Ge4+  0.599  0.498  0.237  1.000
  Ge20  Ge4+  0.599  0.498  0.437  1.000
  Ge20  Ge4+  0.599  0.498  0.637  1.000
  Ge20  Ge4+  0.599  0.498  0.837  1.000
  Ge20  Ge4+  0.599  0.698  0.037  1.000
  Ge20  Ge4+  0.599  0.698  0.237  1.000
  Ge20  Ge4+  0.599  0.698  0.437  1.000
  Ge20  Ge4+  0.599  0.698  0.637  1.000
  Ge20  Ge4+  0.599  0.698  0.837  1.000
  Ge20  Ge4+  0.599  0.898  0.037  1.000
  Ge20  Ge4+  0.599  0.898  0.237  1.000
  Ge20  Ge4+  0.599  0.898  0.437  1.000
  Ge20  Ge4+  0.599  0.898  0.637  1.000
  Ge20  Ge4+  0.599  0.898  0.837  1.000
  Ge20  Ge4+  0.799  0.098  0.037  1.000
  Ge20  Ge4+  0.799  0.098  0.237  1.000
  Ge20  Ge4+  0.799  0.098  0.437  1.000
  Ge20  Ge4+  0.799  0.098  0.637  1.000
  Ge20  Ge4+  0.799  0.098  0.837  1.000
  Ge20  Ge4+  0.799  0.298  0.037  1.000
  Ge20  Ge4+  0.799  0.298  0.237  1.000
  Ge20  Ge4+  0.799  0.298  0.437  1.000
  Ge20  Ge4+  0.799  0.298  0.637  1.000
  Ge20  Ge4+  0.799  0.298  0.837  1.000
  Ge20  Ge4+  0.799  0.498  0.037  1.000
  Ge20  Ge4+  0.799  0.498  0.237  1.000
  Ge20  Ge4+  0.799  0.498  0.437  1.000
  Ge20  Ge4+  0.799  0.498  0.637  1.000
  Ge20  Ge4+  0.799  0.498  0.837  1.000
  Ge20  Ge4+  0.799  0.698  0.037  1.000
  Ge20  Ge4+  0.799  0.698  0.237  1.000
  Ge20  Ge4+  0.799  0.698  0.437  1.000
  Ge20  Ge4+  0.799  0.698  0.637  1.000
  Ge20  Ge4+  0.799  0.698  0.837  1.000
  Ge20  Ge4+  0.799  0.898  0.037  1.000
  Ge20  Ge4+  0.799  0.898  0.237  1.000
  Ge20  Ge4+  0.799  0.898  0.437  1.000
  Ge20  Ge4+  0.799  0.898  0.637  1.000
  Ge20  Ge4+  0.799  0.898  0.837  1.000
  Ge20  Ge4+  0.999  0.098  0.037  1.000
  Ge20  Ge4+  0.999  0.098  0.237  1.000
  Ge20  Ge4+  0.999  0.098  0.437  1.000
  Ge20  Ge4+  0.999  0.098  0.637  1.000
  Ge20  Ge4+  0.999  0.098  0.837  1.000
  Ge20  Ge4+  0.999  0.298  0.037  1.000
  Ge20  Ge4+  0.999  0.298  0.237  1.000
  Ge20  Ge4+  0.999  0.298  0.437  1.000
  Ge20  Ge4+  0.999  0.298  0.637  1.000
  Ge20  Ge4+  0.999  0.298  0.837  1.000
  Ge20  Ge4+  0.999  0.498  0.037  1.000
  Ge20  Ge4+  0.999  0.498  0.237  1.000
  Ge20  Ge4+  0.999  0.498  0.437  1.000
  Ge20  Ge4+  0.999  0.498  0.637  1.000
  Ge20  Ge4+  0.999  0.498  0.837  1.000
  Ge20  Ge4+  0.999  0.698  0.037  1.000
  Ge20  Ge4+  0.999  0.698  0.237  1.000
  Ge20  Ge4+  0.999  0.698  0.437  1.000
  Ge20  Ge4+  0.999  0.698  0.637  1.000
  Ge20  Ge4+  0.999  0.698  0.837  1.000
  Ge20  Ge4+  0.999  0.898  0.037  1.000
  Ge20  Ge4+  0.999  0.898  0.237  1.000
  Ge20  Ge4+  0.999  0.898  0.437  1.000
  Ge20  Ge4+  0.999  0.898  0.637  1.000
  Ge20  Ge4+  0.999  0.898  0.837  1.000
  Ge21  Ge4+  0.102  0.198  0.163  1.000
  Ge21  Ge4+  0.102  0.198  0.363  1.000
  Ge21  Ge4+  0.102  0.198  0.563  1.000
  Ge21  Ge4+  0.102  0.198  0.763  1.000
  Ge21  Ge4+  0.102  0.198  0.963  1.000
  Ge21  Ge4+  0.102  0.398  0.163  1.000
  Ge21  Ge4+  0.102  0.398  0.363  1.000
  Ge21  Ge4+  0.102  0.398  0.563  1.000
  Ge21  Ge4+  0.102  0.398  0.763  1.000
  Ge21  Ge4+  0.102  0.398  0.963  1.000
  Ge21  Ge4+  0.102  0.598  0.163  1.000
  Ge21  Ge4+  0.102  0.598  0.363  1.000
  Ge21  Ge4+  0.102  0.598  0.563  1.000
  Ge21  Ge4+  0.102  0.598  0.763  1.000
  Ge21  Ge4+  0.102  0.598  0.963  1.000
  Ge21  Ge4+  0.102  0.798  0.163  1.000
  Ge21  Ge4+  0.102  0.798  0.363  1.000
  Ge21  Ge4+  0.102  0.798  0.563  1.000
  Ge21  Ge4+  0.102  0.798  0.763  1.000
  Ge21  Ge4+  0.102  0.798  0.963  1.000
  Ge21  Ge4+  0.102  0.998  0.163  1.000
  Ge21  Ge4+  0.102  0.998  0.363  1.000
  Ge21  Ge4+  0.102  0.998  0.563  1.000
  Ge21  Ge4+  0.102  0.998  0.763  1.000
  Ge21  Ge4+  0.102  0.998  0.963  1.000
  Ge21  Ge4+  0.302  0.198  0.163  1.000
  Ge21  Ge4+  0.302  0.198  0.363  1.000
  Ge21  Ge4+  0.302  0.198  0.563  1.000
  Ge21  Ge4+  0.302  0.198  0.763  1.000
  Ge21  Ge4+  0.302  0.198  0.963  1.000
  Ge21  Ge4+  0.302  0.398  0.163  1.000
  Ge21  Ge4+  0.302  0.398  0.363  1.000
  Ge21  Ge4+  0.302  0.398  0.563  1.000
  Ge21  Ge4+  0.302  0.398  0.763  1.000
  Ge21  Ge4+  0.302  0.398  0.963  1.000
  Ge21  Ge4+  0.302  0.598  0.163  1.000
  Ge21  Ge4+  0.302  0.598  0.363  1.000
  Ge21  Ge4+  0.302  0.598  0.563  1.000
  Ge21  Ge4+  0.302  0.598  0.763  1.000
  Ge21  Ge4+  0.302  0.598  0.963  1.000
  Ge21  Ge4+  0.302  0.798  0.163  1.000
  Ge21  Ge4+  0.302  0.798  0.363  1.000
  Ge21  Ge4+  0.302  0.798  0.563  1.000
  Ge21  Ge4+  0.302  0.798  0.763  1.000
  Ge21  Ge4+  0.302  0.798  0.963  1.000
  Ge21  Ge4+  0.302  0.998  0.163  1.000
  Ge21  Ge4+  0.302  0.998  0.363  1.000
  Ge21  Ge4+  0.302  0.998  0.563  1.000
  Ge21  Ge4+  0.302  0.998  0.763  1.000
  Ge21  Ge4+  0.302  0.998  0.963  1.000
  Ge21  Ge4+  0.502  0.198  0.163  1.000
  Ge21  Ge4+  0.502  0.198  0.363  1.000
  Ge21  Ge4+  0.502  0.198  0.563  1.000
  Ge21  Ge4+  0.502  0.198  0.763  1.000
  Ge21  Ge4+  0.502  0.198  0.963  1.000
  Ge21  Ge4+  0.502  0.398  0.163  1.000
  Ge21  Ge4+  0.502  0.398  0.363  1.000
  Ge21  Ge4+  0.502  0.398  0.563  1.000
  Ge21  Ge4+  0.502  0.398  0.763  1.000
  Ge21  Ge4+  0.502  0.398  0.963  1.000
  Ge21  Ge4+  0.502  0.598  0.163  1.000
  Ge21  Ge4+  0.502  0.598  0.363  1.000
  Ge21  Ge4+  0.502  0.598  0.563  1.000
  Ge21  Ge4+  0.502  0.598  0.763  1.000
  Ge21  Ge4+  0.502  0.598  0.963  1.000
  Ge21  Ge4+  0.502  0.798  0.163  1.000
  Ge21  Ge4+  0.502  0.798  0.363  1.000
  Ge21  Ge4+  0.502  0.798  0.563  1.000
  Ge21  Ge4+  0.502  0.798  0.763  1.000
  Ge21  Ge4+  0.502  0.798  0.963  1.000
  Ge21  Ge4+  0.502  0.998  0.163  1.000
  Ge21  Ge4+  0.502  0.998  0.363  1.000
  Ge21  Ge4+  0.502  0.998  0.563  1.000
  Ge21  Ge4+  0.502  0.998  0.763  1.000
  Ge21  Ge4+  0.502  0.998  0.963  1.000
  Ge21  Ge4+  0.702  0.198  0.163  1.000
  Ge21  Ge4+  0.702  0.198  0.363  1.000
  Ge21  Ge4+  0.702  0.198  0.563  1.000
  Ge21  Ge4+  0.702  0.198  0.763  1.000
  Ge21  Ge4+  0.702  0.198  0.963  1.000
  Ge21  Ge4+  0.702  0.398  0.163  1.000
  Ge21  Ge4+  0.702  0.398  0.363  1.000
  Ge21  Ge4+  0.702  0.398  0.563  1.000
  Ge21  Ge4+  0.702  0.398  0.763  1.000
  Ge21  Ge4+  0.702  0.398  0.963  1.000
  Ge21  Ge4+  0.702  0.598  0.163  1.000
  Ge21  Ge4+  0.702  0.598  0.363  1.000
  Ge21  Ge4+  0.702  0.598  0.563  1.000
  Ge21  Ge4+  0.702  0.598  0.763  1.000
  Ge21  Ge4+  0.702  0.598  0.963  1.000
  Ge21  Ge4+  0.702  0.798  0.163  1.000
  Ge21  Ge4+  0.702  0.798  0.363  1.000
  Ge21  Ge4+  0.702  0.798  0.563  1.000
  Ge21  Ge4+  0.702  0.798  0.763  1.000
  Ge21  Ge4+  0.702  0.798  0.963  1.000
  Ge21  Ge4+  0.702  0.998  0.163  1.000
  Ge21  Ge4+  0.702  0.998  0.363  1.000
  Ge21  Ge4+  0.702  0.998  0.563  1.000
  Ge21  Ge4+  0.702  0.998  0.763  1.000
  Ge21  Ge4+  0.702  0.998  0.963  1.000
  Ge21  Ge4+  0.902  0.198  0.163  1.000
  Ge21  Ge4+  0.902  0.198  0.363  1.000
  Ge21  Ge4+  0.902  0.198  0.563  1.000
  Ge21  Ge4+  0.902  0.198  0.763  1.000
  Ge21  Ge4+  0.902  0.198  0.963  1.000
  Ge21  Ge4+  0.902  0.398  0.163  1.000
  Ge21  Ge4+  0.902  0.398  0.363  1.000
  Ge21  Ge4+  0.902  0.398  0.563  1.000
  Ge21  Ge4+  0.902  0.398  0.763  1.000
  Ge21  Ge4+  0.902  0.398  0.963  1.000
  Ge21  Ge4+  0.902  0.598  0.163  1.000
  Ge21  Ge4+  0.902  0.598  0.363  1.000
  Ge21  Ge4+  0.902  0.598  0.563  1.000
  Ge21  Ge4+  0.902  0.598  0.763  1.000
  Ge21  Ge4+  0.902  0.598  0.963  1.000
  Ge21  Ge4+  0.902  0.798  0.163  1.000
  Ge21  Ge4+  0.902  0.798  0.363  1.000
  Ge21  Ge4+  0.902  0.798  0.563  1.000
  Ge21  Ge4+  0.902  0.798  0.763  1.000
  Ge21  Ge4+  0.902  0.798  0.963  1.000
  Ge21  Ge4+  0.902  0.998  0.163  1.000
  Ge21  Ge4+  0.902  0.998  0.363  1.000
  Ge21  Ge4+  0.902  0.998  0.563  1.000
  Ge21  Ge4+  0.902  0.998  0.763  1.000
  Ge21  Ge4+  0.902  0.998  0.963  1.000
  Li1  Li1+  0.179  -0.000  0.017  0.000
  Li4  Li1+  -0.000  0.023  0.182  0.000
  Li9  Li1+  0.006  0.142  0.115  0.000
  Li12  Li1+  0.017  0.042  0.053  0.000
  Li17  Li1+  0.198  -0.000  0.051  0.000
  Li23  Li1+  0.048  0.062  0.089  0.000
  Li25  Li1+  0.050  0.031  0.011  0.000
  Li29  Li1+  0.048  0.198  0.081  0.000
  Li41  Li1+  0.102  0.075  0.115  0.000
  Li52  Li1+  0.158  0.021  0.149  0.000
  Li55  Li1+  0.148  0.181  0.079  0.000
  Li58  Li1+  0.146  0.073  0.151  0.000
  Li62  Li1+  0.148  0.140  0.146  0.000
  Li64  Li1+  0.181  0.040  0.051  0.000
  Li65  Li1+  0.179  -0.000  0.217  0.000
  Li68  Li1+  -0.000  0.023  0.382  0.000
  Li73  Li1+  0.006  0.142  0.315  0.000
  Li75  Li1+  0.198  0.025  0.250  0.000
  Li76  Li1+  0.017  0.042  0.253  0.000
  Li88  Li1+  0.052  0.169  0.214  0.000
  Li93  Li1+  0.048  0.198  0.281  0.000
  Li98  Li1+  0.056  0.067  0.354  0.000
  Li103  Li1+  0.094  0.152  0.381  0.000
  Li105  Li1+  0.102  0.075  0.315  0.000
  Li107  Li1+  0.129  0.146  0.307  0.000
  Li112  Li1+  0.148  0.150  0.356  0.000
  Li116  Li1+  0.158  0.021  0.349  0.000
  Li118  Li1+  0.152  0.146  0.340  0.000
  Li122  Li1+  0.146  0.073  0.351  0.000
  Li123  Li1+  0.148  0.004  0.282  0.000
  Li125  Li1+  0.150  0.117  0.218  0.000
  Li129  Li1+  0.179  -0.000  0.417  0.000
  Li130  Li1+  0.023  -0.000  0.414  0.000
  Li137  Li1+  0.006  0.142  0.515  0.000
  Li140  Li1+  0.017  0.042  0.453  0.000
  Li142  Li1+  0.198  0.192  0.447  0.000
  Li149  Li1+  0.050  0.106  0.419  0.000
  Li157  Li1+  0.048  0.198  0.481  0.000
  Li162  Li1+  0.056  0.067  0.554  0.000
  Li169  Li1+  0.102  0.075  0.515  0.000
  Li174  Li1+  0.150  0.079  0.414  0.000
  Li178  Li1+  0.148  0.037  0.415  0.000
  Li179  Li1+  0.148  0.165  0.414  0.000
  Li183  Li1+  0.148  0.181  0.479  0.000
  Li184  Li1+  0.148  0.050  0.426  0.000
  Li189  Li1+  0.150  0.117  0.418  0.000
  Li192  Li1+  0.181  0.040  0.451  0.000
  Li196  Li1+  -0.000  0.023  0.782  0.000
  Li201  Li1+  0.006  0.142  0.715  0.000
  Li202  Li1+  0.029  0.150  0.789  0.000
  Li203  Li1+  0.198  0.025  0.650  0.000
  Li214  Li1+  0.046  0.046  0.672  0.000
  Li215  Li1+  0.048  0.062  0.689  0.000
  Li226  Li1+  0.056  0.067  0.754  0.000
  Li231  Li1+  0.094  0.152  0.781  0.000
  Li233  Li1+  0.102  0.075  0.715  0.000
  Li235  Li1+  0.129  0.146  0.707  0.000
  Li243  Li1+  0.148  0.165  0.614  0.000
  Li244  Li1+  0.158  0.021  0.749  0.000
  Li251  Li1+  0.148  0.004  0.682  0.000
  Li256  Li1+  0.181  0.040  0.651  0.000
  Li258  Li1+  0.023  -0.000  0.814  0.000
  Li260  Li1+  -0.000  0.023  0.982  0.000
  Li265  Li1+  0.006  0.142  0.915  0.000
  Li267  Li1+  0.198  0.025  0.850  0.000
  Li274  Li1+  0.048  0.008  0.882  0.000
  Li277  Li1+  0.050  0.106  0.819  0.000
  Li280  Li1+  0.052  0.169  0.814  0.000
  Li285  Li1+  0.048  0.198  0.881  0.000
  Li289  Li1+  0.096  0.067  0.850  0.000
  Li290  Li1+  0.056  0.067  0.954  0.000
  Li293  Li1+  0.098  0.100  0.847  0.000
  Li297  Li1+  0.102  0.075  0.915  0.000
  Li302  Li1+  0.150  0.079  0.814  0.000
  Li307  Li1+  0.148  0.165  0.814  0.000
  Li314  Li1+  0.146  0.073  0.951  0.000
  Li315  Li1+  0.148  0.004  0.882  0.000
  Li317  Li1+  0.150  0.117  0.818  0.000
  Li322  Li1+  0.023  0.200  0.014  0.000
  Li324  Li1+  -0.000  0.223  0.182  0.000
  Li329  Li1+  0.006  0.342  0.115  0.000
  Li332  Li1+  0.017  0.242  0.053  0.000
  Li341  Li1+  0.050  0.306  0.019  0.000
  Li349  Li1+  0.048  0.398  0.081  0.000
  Li354  Li1+  0.056  0.267  0.154  0.000
  Li359  Li1+  0.094  0.352  0.181  0.000
  Li363  Li1+  0.129  0.346  0.107  0.000
  Li371  Li1+  0.148  0.365  0.014  0.000
  Li375  Li1+  0.148  0.381  0.079  0.000
  Li378  Li1+  0.146  0.273  0.151  0.000
  Li379  Li1+  0.148  0.204  0.082  0.000
  Li380  Li1+  0.160  0.254  0.182  0.000
  Li381  Li1+  0.150  0.317  0.018  0.000
  Li383  Li1+  0.169  0.350  0.189  0.000
  Li385  Li1+  0.179  0.200  0.217  0.000
  Li386  Li1+  0.023  0.200  0.214  0.000
  Li388  Li1+  -0.000  0.223  0.382  0.000
  Li393  Li1+  0.006  0.342  0.315  0.000
  Li396  Li1+  0.017  0.242  0.253  0.000
  Li398  Li1+  0.198  0.392  0.247  0.000
  Li408  Li1+  0.052  0.369  0.214  0.000
  Li410  Li1+  0.052  0.256  0.232  0.000
  Li411  Li1+  0.048  0.352  0.201  0.000
  Li413  Li1+  0.048  0.398  0.281  0.000
  Li418  Li1+  0.056  0.267  0.354  0.000
  Li423  Li1+  0.094  0.352  0.381  0.000
  Li430  Li1+  0.150  0.279  0.214  0.000
  Li434  Li1+  0.148  0.237  0.215  0.000
  Li436  Li1+  0.158  0.221  0.349  0.000
  Li439  Li1+  0.148  0.381  0.279  0.000
  Li440  Li1+  0.148  0.250  0.226  0.000
  Li442  Li1+  0.146  0.273  0.351  0.000
  Li448  Li1+  0.181  0.240  0.251  0.000
  Li449  Li1+  0.179  0.200  0.417  0.000
  Li450  Li1+  0.023  0.200  0.414  0.000
  Li452  Li1+  -0.000  0.223  0.582  0.000
  Li458  Li1+  0.029  0.350  0.589  0.000
  Li462  Li1+  0.198  0.392  0.447  0.000
  Li471  Li1+  0.048  0.262  0.489  0.000
  Li473  Li1+  0.050  0.231  0.411  0.000
  Li477  Li1+  0.048  0.398  0.481  0.000
  Li487  Li1+  0.094  0.352  0.581  0.000
  Li494  Li1+  0.150  0.279  0.414  0.000
  Li498  Li1+  0.148  0.237  0.415  0.000
  Li499  Li1+  0.148  0.365  0.414  0.000
  Li500  Li1+  0.158  0.221  0.549  0.000
  Li503  Li1+  0.148  0.381  0.479  0.000
  Li506  Li1+  0.146  0.273  0.551  0.000
  Li507  Li1+  0.148  0.204  0.482  0.000
  Li509  Li1+  0.150  0.317  0.418  0.000
  Li512  Li1+  0.181  0.240  0.451  0.000
  Li514  Li1+  0.023  0.200  0.614  0.000
  Li523  Li1+  0.198  0.225  0.650  0.000
  Li524  Li1+  0.017  0.242  0.653  0.000
  Li535  Li1+  0.048  0.262  0.689  0.000
  Li539  Li1+  0.048  0.352  0.601  0.000
  Li541  Li1+  0.048  0.398  0.681  0.000
  Li542  Li1+  0.056  0.242  0.714  0.000
  Li551  Li1+  0.094  0.352  0.781  0.000
  Li553  Li1+  0.102  0.275  0.715  0.000
  Li563  Li1+  0.148  0.365  0.614  0.000
  Li564  Li1+  0.158  0.221  0.749  0.000
  Li570  Li1+  0.146  0.273  0.751  0.000
  Li572  Li1+  0.160  0.254  0.782  0.000
  Li576  Li1+  0.181  0.240  0.651  0.000
  Li580  Li1+  -0.000  0.223  0.982  0.000
  Li585  Li1+  0.006  0.342  0.915  0.000
  Li593  Li1+  0.198  0.200  0.851  0.000
  Li597  Li1+  0.050  0.306  0.819  0.000
  Li599  Li1+  0.048  0.262  0.889  0.000
  Li601  Li1+  0.050  0.231  0.811  0.000
  Li602  Li1+  0.052  0.256  0.832  0.000
  Li605  Li1+  0.048  0.398  0.881  0.000
  Li610  Li1+  0.056  0.267  0.954  0.000
  Li615  Li1+  0.094  0.352  0.981  0.000
  Li617  Li1+  0.102  0.275  0.915  0.000
  Li624  Li1+  0.148  0.350  0.956  0.000
  Li628  Li1+  0.158  0.221  0.949  0.000
  Li631  Li1+  0.148  0.381  0.879  0.000
  Li636  Li1+  0.160  0.254  0.982  0.000
  Li640  Li1+  0.181  0.240  0.851  0.000
  Li650  Li1+  0.029  0.550  0.189  0.000
  Li652  Li1+  0.017  0.442  0.053  0.000
  Li658  Li1+  0.048  0.408  0.082  0.000
  Li661  Li1+  0.050  0.506  0.019  0.000
  Li662  Li1+  0.046  0.446  0.072  0.000
  Li664  Li1+  0.052  0.569  0.014  0.000
  Li665  Li1+  0.050  0.431  0.011  0.000
  Li669  Li1+  0.048  0.598  0.081  0.000
  Li673  Li1+  0.096  0.467  0.050  0.000
  Li684  Li1+  0.150  0.462  0.088  0.000
  Li692  Li1+  0.158  0.421  0.149  0.000
  Li698  Li1+  0.146  0.473  0.151  0.000
  Li704  Li1+  0.181  0.440  0.051  0.000
  Li705  Li1+  0.179  0.400  0.217  0.000
  Li708  Li1+  -0.000  0.423  0.382  0.000
  Li713  Li1+  0.006  0.542  0.315  0.000
  Li716  Li1+  0.017  0.442  0.253  0.000
  Li718  Li1+  0.198  0.592  0.247  0.000
  Li721  Li1+  0.198  0.400  0.251  0.000
  Li722  Li1+  0.048  0.408  0.282  0.000
  Li724  Li1+  0.046  0.556  0.350  0.000
  Li725  Li1+  0.050  0.506  0.219  0.000
  Li726  Li1+  0.046  0.446  0.272  0.000
  Li733  Li1+  0.048  0.598  0.281  0.000
  Li738  Li1+  0.056  0.467  0.354  0.000
  Li743  Li1+  0.094  0.552  0.381  0.000
  Li745  Li1+  0.102  0.475  0.315  0.000
  Li748  Li1+  0.150  0.462  0.288  0.000
  Li750  Li1+  0.150  0.479  0.214  0.000
  Li755  Li1+  0.148  0.565  0.214  0.000
  Li756  Li1+  0.158  0.421  0.349  0.000
  Li759  Li1+  0.148  0.581  0.279  0.000
  Li761  Li1+  0.152  0.444  0.269  0.000
  Li763  Li1+  0.148  0.404  0.282  0.000
  Li764  Li1+  0.160  0.454  0.382  0.000
  Li765  Li1+  0.150  0.517  0.218  0.000
  Li768  Li1+  0.181  0.440  0.251  0.000
  Li769  Li1+  0.179  0.400  0.417  0.000
  Li792  Li1+  0.052  0.569  0.414  0.000
  Li797  Li1+  0.048  0.598  0.481  0.000
  Li808  Li1+  0.098  0.510  0.451  0.000
  Li814  Li1+  0.150  0.479  0.414  0.000
  Li816  Li1+  0.148  0.550  0.556  0.000
  Li820  Li1+  0.158  0.421  0.549  0.000
  Li826  Li1+  0.146  0.473  0.551  0.000
  Li827  Li1+  0.148  0.404  0.482  0.000
  Li829  Li1+  0.150  0.517  0.418  0.000
  Li832  Li1+  0.181  0.440  0.451  0.000
  Li833  Li1+  0.179  0.400  0.617  0.000
  Li836  Li1+  -0.000  0.423  0.782  0.000
  Li841  Li1+  0.006  0.542  0.715  0.000
  Li844  Li1+  0.017  0.442  0.653  0.000
  Li849  Li1+  0.198  0.400  0.651  0.000
  Li853  Li1+  0.050  0.506  0.619  0.000
  Li861  Li1+  0.048  0.598  0.681  0.000
  Li862  Li1+  0.056  0.442  0.714  0.000
  Li865  Li1+  0.096  0.467  0.650  0.000
  Li873  Li1+  0.102  0.475  0.715  0.000
  Li875  Li1+  0.129  0.546  0.707  0.000
  Li878  Li1+  0.150  0.479  0.614  0.000
  Li880  Li1+  0.148  0.550  0.756  0.000
  Li883  Li1+  0.148  0.565  0.614  0.000
  Li884  Li1+  0.158  0.421  0.749  0.000
  Li887  Li1+  0.148  0.581  0.679  0.000
  Li889  Li1+  0.152  0.444  0.669  0.000
  Li890  Li1+  0.146  0.473  0.751  0.000
  Li893  Li1+  0.150  0.517  0.618  0.000
  Li897  Li1+  0.179  0.400  0.817  0.000
  Li898  Li1+  0.023  0.400  0.814  0.000
  Li908  Li1+  0.017  0.442  0.853  0.000
  Li914  Li1+  0.048  0.408  0.882  0.000
  Li919  Li1+  0.048  0.462  0.889  0.000
  Li920  Li1+  0.052  0.569  0.814  0.000
  Li921  Li1+  0.050  0.431  0.811  0.000
  Li925  Li1+  0.048  0.598  0.881  0.000
  Li935  Li1+  0.094  0.552  0.981  0.000
  Li953  Li1+  0.152  0.444  0.869  0.000
  Li954  Li1+  0.146  0.473  0.951  0.000
  Li955  Li1+  0.148  0.404  0.882  0.000
  Li957  Li1+  0.150  0.517  0.818  0.000
  Li959  Li1+  0.169  0.550  0.989  0.000
  Li960  Li1+  0.181  0.440  0.851  0.000
  Li962  Li1+  0.023  0.600  0.014  0.000
  Li969  Li1+  0.006  0.742  0.115  0.000
  Li978  Li1+  0.048  0.608  0.082  0.000
  Li994  Li1+  0.056  0.667  0.154  0.000
  Li1003  Li1+  0.129  0.746  0.107  0.000
  Li1006  Li1+  0.150  0.679  0.014  0.000
  Li1008  Li1+  0.148  0.750  0.156  0.000
  Li1010  Li1+  0.148  0.638  0.015  0.000
  Li1011  Li1+  0.148  0.765  0.014  0.000
  Li1012  Li1+  0.158  0.621  0.149  0.000
  Li1015  Li1+  0.148  0.781  0.079  0.000
  Li1016  Li1+  0.148  0.650  0.026  0.000
  Li1018  Li1+  0.146  0.673  0.151  0.000
  Li1021  Li1+  0.150  0.717  0.018  0.000
  Li1024  Li1+  0.181  0.640  0.051  0.000
  Li1028  Li1+  -0.000  0.623  0.382  0.000
  Li1038  Li1+  0.198  0.792  0.247  0.000
  Li1041  Li1+  0.198  0.600  0.251  0.000
  Li1042  Li1+  0.048  0.608  0.282  0.000
  Li1045  Li1+  0.050  0.706  0.219  0.000
  Li1050  Li1+  0.052  0.656  0.232  0.000
  Li1063  Li1+  0.094  0.752  0.381  0.000
  Li1064  Li1+  0.098  0.710  0.251  0.000
  Li1065  Li1+  0.102  0.675  0.315  0.000
  Li1067  Li1+  0.129  0.746  0.307  0.000
  Li1068  Li1+  0.150  0.662  0.288  0.000
  Li1070  Li1+  0.150  0.679  0.214  0.000
  Li1080  Li1+  0.148  0.650  0.226  0.000
  Li1081  Li1+  0.152  0.644  0.269  0.000
  Li1082  Li1+  0.146  0.673  0.351  0.000
  Li1085  Li1+  0.150  0.717  0.218  0.000
  Li1086  Li1+  0.148  0.740  0.346  0.000
  Li1087  Li1+  0.169  0.750  0.389  0.000
  Li1090  Li1+  0.023  0.600  0.414  0.000
  Li1097  Li1+  0.006  0.742  0.515  0.000
  Li1098  Li1+  0.029  0.750  0.589  0.000
  Li1117  Li1+  0.048  0.798  0.481  0.000
  Li1119  Li1+  0.050  0.710  0.421  0.000
  Li1122  Li1+  0.056  0.667  0.554  0.000
  Li1127  Li1+  0.094  0.752  0.581  0.000
  Li1128  Li1+  0.098  0.710  0.451  0.000
  Li1139  Li1+  0.148  0.765  0.414  0.000
  Li1140  Li1+  0.158  0.621  0.549  0.000
  Li1143  Li1+  0.148  0.781  0.479  0.000
  Li1149  Li1+  0.150  0.717  0.418  0.000
  Li1153  Li1+  0.179  0.600  0.617  0.000
  Li1161  Li1+  0.006  0.742  0.715  0.000
  Li1163  Li1+  0.198  0.625  0.650  0.000
  Li1164  Li1+  0.017  0.642  0.653  0.000
  Li1170  Li1+  0.048  0.608  0.682  0.000
  Li1173  Li1+  0.050  0.706  0.619  0.000
  Li1176  Li1+  0.052  0.769  0.614  0.000
  Li1181  Li1+  0.048  0.798  0.681  0.000
  Li1193  Li1+  0.102  0.675  0.715  0.000
  Li1195  Li1+  0.129  0.746  0.707  0.000
  Li1198  Li1+  0.150  0.679  0.614  0.000
  Li1199  Li1+  0.148  0.742  0.693  0.000
  Li1204  Li1+  0.158  0.621  0.749  0.000
  Li1210  Li1+  0.146  0.673  0.751  0.000
  Li1213  Li1+  0.150  0.717  0.618  0.000
  Li1216  Li1+  0.181  0.640  0.651  0.000
  Li1217  Li1+  0.179  0.600  0.817  0.000
  Li1225  Li1+  0.006  0.742  0.915  0.000
  Li1228  Li1+  0.017  0.642  0.853  0.000
  Li1250  Li1+  0.056  0.667  0.954  0.000
  Li1256  Li1+  0.098  0.710  0.851  0.000
  Li1260  Li1+  0.150  0.662  0.888  0.000
  Li1266  Li1+  0.148  0.637  0.815  0.000
  Li1267  Li1+  0.148  0.765  0.814  0.000
  Li1268  Li1+  0.158  0.621  0.949  0.000
  Li1271  Li1+  0.148  0.781  0.879  0.000
  Li1273  Li1+  0.152  0.644  0.869  0.000
  Li1274  Li1+  0.146  0.673  0.951  0.000
  Li1281  Li1+  0.179  0.800  0.017  0.000
  Li1282  Li1+  0.023  0.800  0.014  0.000
  Li1283  Li1+  0.004  0.992  0.150  0.000
  Li1289  Li1+  0.006  0.942  0.115  0.000
  Li1292  Li1+  0.017  0.842  0.053  0.000
  Li1294  Li1+  0.198  0.992  0.047  0.000
  Li1314  Li1+  0.056  0.867  0.154  0.000
  Li1319  Li1+  0.094  0.952  0.181  0.000
  Li1321  Li1+  0.102  0.875  0.115  0.000
  Li1324  Li1+  0.150  0.862  0.088  0.000
  Li1326  Li1+  0.150  0.879  0.014  0.000
  Li1332  Li1+  0.158  0.821  0.149  0.000
  Li1335  Li1+  0.148  0.981  0.079  0.000
  Li1338  Li1+  0.146  0.873  0.151  0.000
  Li1340  Li1+  0.160  0.854  0.182  0.000
  Li1341  Li1+  0.150  0.917  0.018  0.000
  Li1342  Li1+  0.148  0.940  0.146  0.000
  Li1345  Li1+  0.179  0.800  0.217  0.000
  Li1347  Li1+  0.004  0.992  0.350  0.000
  Li1365  Li1+  0.050  0.906  0.219  0.000
  Li1367  Li1+  0.048  0.862  0.289  0.000
  Li1383  Li1+  0.094  0.952  0.381  0.000
  Li1385  Li1+  0.102  0.875  0.315  0.000
  Li1387  Li1+  0.129  0.946  0.307  0.000
  Li1392  Li1+  0.148  0.950  0.356  0.000
  Li1396  Li1+  0.158  0.821  0.349  0.000
  Li1404  Li1+  0.160  0.854  0.382  0.000
  Li1405  Li1+  0.150  0.917  0.218  0.000
  Li1408  Li1+  0.181  0.840  0.251  0.000
  Li1409  Li1+  0.179  0.800  0.417  0.000
  Li1410  Li1+  0.023  0.800  0.414  0.000
  Li1417  Li1+  0.006  0.942  0.515  0.000
  Li1426  Li1+  0.048  0.808  0.482  0.000
  Li1429  Li1+  0.050  0.906  0.419  0.000
  Li1432  Li1+  0.052  0.969  0.414  0.000
  Li1437  Li1+  0.048  0.998  0.481  0.000
  Li1449  Li1+  0.102  0.875  0.515  0.000
  Li1452  Li1+  0.150  0.862  0.488  0.000
  Li1454  Li1+  0.150  0.879  0.414  0.000
  Li1463  Li1+  0.148  0.981  0.479  0.000
  Li1467  Li1+  0.148  0.804  0.482  0.000
  Li1468  Li1+  0.160  0.854  0.582  0.000
  Li1472  Li1+  0.181  0.840  0.451  0.000
  Li1473  Li1+  0.179  0.800  0.617  0.000
  Li1474  Li1+  0.023  0.800  0.614  0.000
  Li1476  Li1+  -0.000  0.823  0.782  0.000
  Li1486  Li1+  0.198  0.992  0.647  0.000
  Li1490  Li1+  0.048  0.808  0.682  0.000
  Li1494  Li1+  0.046  0.846  0.672  0.000
  Li1495  Li1+  0.048  0.862  0.689  0.000
  Li1503  Li1+  0.050  0.910  0.621  0.000
  Li1506  Li1+  0.056  0.867  0.754  0.000
  Li1511  Li1+  0.094  0.952  0.781  0.000
  Li1518  Li1+  0.150  0.879  0.614  0.000
  Li1522  Li1+  0.148  0.837  0.615  0.000
  Li1524  Li1+  0.158  0.821  0.749  0.000
  Li1527  Li1+  0.148  0.981  0.679  0.000
  Li1528  Li1+  0.148  0.850  0.626  0.000
  Li1530  Li1+  0.146  0.873  0.751  0.000
  Li1536  Li1+  0.181  0.840  0.651  0.000
  Li1537  Li1+  0.179  0.800  0.817  0.000
  Li1545  Li1+  0.006  0.942  0.915  0.000
  Li1548  Li1+  0.017  0.842  0.853  0.000
  Li1562  Li1+  0.052  0.856  0.832  0.000
  Li1565  Li1+  0.048  0.998  0.881  0.000
  Li1570  Li1+  0.056  0.867  0.954  0.000
  Li1576  Li1+  0.098  0.910  0.851  0.000
  Li1579  Li1+  0.129  0.946  0.907  0.000
  Li1582  Li1+  0.150  0.879  0.814  0.000
  Li1586  Li1+  0.148  0.837  0.815  0.000
  Li1587  Li1+  0.148  0.965  0.814  0.000
  Li1588  Li1+  0.158  0.821  0.949  0.000
  Li1591  Li1+  0.148  0.981  0.879  0.000
  Li1593  Li1+  0.152  0.844  0.869  0.000
  Li1594  Li1+  0.146  0.873  0.951  0.000
  Li1595  Li1+  0.148  0.804  0.882  0.000
  Li1596  Li1+  0.160  0.854  0.982  0.000
  Li1600  Li1+  0.181  0.840  0.851  0.000
  Li1601  Li1+  0.379  -0.000  0.017  0.000
  Li1602  Li1+  0.223  -0.000  0.014  0.000
  Li1614  Li1+  0.398  0.192  0.047  0.000
  Li1618  Li1+  0.248  0.008  0.082  0.000
  Li1621  Li1+  0.250  0.106  0.019  0.000
  Li1624  Li1+  0.252  0.169  0.014  0.000
  Li1639  Li1+  0.294  0.152  0.181  0.000
  Li1641  Li1+  0.302  0.075  0.115  0.000
  Li1644  Li1+  0.350  0.062  0.088  0.000
  Li1652  Li1+  0.358  0.021  0.149  0.000
  Li1655  Li1+  0.348  0.181  0.079  0.000
  Li1664  Li1+  0.381  0.040  0.051  0.000
  Li1665  Li1+  0.379  -0.000  0.217  0.000
  Li1668  Li1+  0.200  0.023  0.382  0.000
  Li1675  Li1+  0.398  0.025  0.250  0.000
  Li1678  Li1+  0.398  0.192  0.247  0.000
  Li1681  Li1+  0.398  -0.000  0.251  0.000
  Li1688  Li1+  0.252  0.169  0.214  0.000
  Li1698  Li1+  0.256  0.067  0.354  0.000
  Li1703  Li1+  0.294  0.152  0.381  0.000
  Li1705  Li1+  0.302  0.075  0.315  0.000
  Li1716  Li1+  0.358  0.021  0.349  0.000
  Li1719  Li1+  0.348  0.181  0.279  0.000
  Li1722  Li1+  0.346  0.073  0.351  0.000
  Li1725  Li1+  0.350  0.117  0.218  0.000
  Li1727  Li1+  0.369  0.150  0.389  0.000
  Li1728  Li1+  0.381  0.040  0.251  0.000
  Li1729  Li1+  0.379  -0.000  0.417  0.000
  Li1730  Li1+  0.223  -0.000  0.414  0.000
  Li1737  Li1+  0.206  0.142  0.515  0.000
  Li1738  Li1+  0.229  0.150  0.589  0.000
  Li1739  Li1+  0.398  0.025  0.450  0.000
  Li1740  Li1+  0.217  0.042  0.453  0.000
  Li1757  Li1+  0.248  0.198  0.481  0.000
  Li1767  Li1+  0.294  0.152  0.581  0.000
  Li1769  Li1+  0.302  0.075  0.515  0.000
  Li1778  Li1+  0.348  0.037  0.415  0.000
  Li1780  Li1+  0.358  0.021  0.549  0.000
  Li1787  Li1+  0.348  0.004  0.482  0.000
  Li1792  Li1+  0.381  0.040  0.451  0.000
  Li1793  Li1+  0.379  -0.000  0.617  0.000
  Li1794  Li1+  0.223  -0.000  0.614  0.000
  Li1803  Li1+  0.398  0.025  0.650  0.000
  Li1806  Li1+  0.398  0.192  0.647  0.000
  Li1810  Li1+  0.248  0.008  0.682  0.000
  Li1821  Li1+  0.248  0.198  0.681  0.000
  Li1825  Li1+  0.296  0.067  0.650  0.000
  Li1833  Li1+  0.302  0.075  0.715  0.000
  Li1838  Li1+  0.350  0.079  0.614  0.000
  Li1851  Li1+  0.348  0.004  0.682  0.000
  Li1852  Li1+  0.360  0.054  0.782  0.000
  Li1853  Li1+  0.350  0.117  0.618  0.000
  Li1856  Li1+  0.381  0.040  0.651  0.000
  Li1857  Li1+  0.379  -0.000  0.817  0.000
  Li1860  Li1+  0.200  0.023  0.982  0.000
  Li1868  Li1+  0.217  0.042  0.853  0.000
  Li1870  Li1+  0.398  0.192  0.847  0.000
  Li1885  Li1+  0.248  0.198  0.881  0.000
  Li1890  Li1+  0.256  0.067  0.954  0.000
  Li1895  Li1+  0.294  0.152  0.981  0.000
  Li1902  Li1+  0.350  0.079  0.814  0.000
  Li1907  Li1+  0.348  0.165  0.814  0.000
  Li1908  Li1+  0.358  0.021  0.949  0.000
  Li1911  Li1+  0.348  0.181  0.879  0.000
  Li1914  Li1+  0.346  0.073  0.951  0.000
  Li1916  Li1+  0.360  0.054  0.982  0.000
  Li1918  Li1+  0.348  0.140  0.946  0.000
  Li1920  Li1+  0.381  0.040  0.851  0.000
  Li1924  Li1+  0.200  0.223  0.182  0.000
  Li1929  Li1+  0.206  0.342  0.115  0.000
  Li1938  Li1+  0.248  0.208  0.082  0.000
  Li1941  Li1+  0.250  0.306  0.019  0.000
  Li1949  Li1+  0.248  0.398  0.081  0.000
  Li1954  Li1+  0.256  0.267  0.154  0.000
  Li1959  Li1+  0.294  0.352  0.181  0.000
  Li1971  Li1+  0.348  0.365  0.014  0.000
  Li1978  Li1+  0.346  0.273  0.151  0.000
  Li1981  Li1+  0.350  0.317  0.018  0.000
  Li1993  Li1+  0.206  0.342  0.315  0.000
  Li1998  Li1+  0.398  0.392  0.247  0.000
  Li2008  Li1+  0.252  0.369  0.214  0.000
  Li2011  Li1+  0.248  0.352  0.201  0.000
  Li2013  Li1+  0.248  0.398  0.281  0.000
  Li2018  Li1+  0.256  0.267  0.354  0.000
  Li2023  Li1+  0.294  0.352  0.381  0.000
  Li2024  Li1+  0.298  0.310  0.251  0.000
  Li2025  Li1+  0.302  0.275  0.315  0.000
  Li2028  Li1+  0.350  0.262  0.288  0.000
  Li2029  Li1+  0.346  0.244  0.314  0.000
  Li2030  Li1+  0.350  0.279  0.214  0.000
  Li2035  Li1+  0.348  0.365  0.214  0.000
  Li2036  Li1+  0.358  0.221  0.349  0.000
  Li2042  Li1+  0.346  0.273  0.351  0.000
  Li2045  Li1+  0.350  0.317  0.218  0.000
  Li2052  Li1+  0.200  0.223  0.582  0.000
  Li2057  Li1+  0.206  0.342  0.515  0.000
  Li2066  Li1+  0.248  0.208  0.482  0.000
  Li2067  Li1+  0.250  0.340  0.494  0.000
  Li2069  Li1+  0.250  0.306  0.419  0.000
  Li2070  Li1+  0.246  0.246  0.472  0.000
  Li2072  Li1+  0.252  0.369  0.414  0.000
  Li2082  Li1+  0.256  0.267  0.554  0.000
  Li2087  Li1+  0.294  0.352  0.581  0.000
  Li2100  Li1+  0.358  0.221  0.549  0.000
  Li2106  Li1+  0.346  0.273  0.551  0.000
  Li2109  Li1+  0.350  0.317  0.418  0.000
  Li2114  Li1+  0.223  0.200  0.614  0.000
  Li2130  Li1+  0.248  0.208  0.682  0.000
  Li2146  Li1+  0.256  0.267  0.754  0.000
  Li2152  Li1+  0.298  0.310  0.651  0.000
  Li2153  Li1+  0.302  0.275  0.715  0.000
  Li2158  Li1+  0.350  0.279  0.614  0.000
  Li2163  Li1+  0.348  0.365  0.614  0.000
  Li2170  Li1+  0.346  0.273  0.751  0.000
  Li2173  Li1+  0.350  0.317  0.618  0.000
  Li2175  Li1+  0.369  0.350  0.789  0.000
  Li2177  Li1+  0.379  0.200  0.817  0.000
  Li2185  Li1+  0.206  0.342  0.915  0.000
  Li2186  Li1+  0.229  0.350  0.989  0.000
  Li2201  Li1+  0.250  0.231  0.811  0.000
  Li2202  Li1+  0.252  0.256  0.832  0.000
  Li2205  Li1+  0.248  0.398  0.881  0.000
  Li2215  Li1+  0.294  0.352  0.981  0.000
  Li2217  Li1+  0.302  0.275  0.915  0.000
  Li2219  Li1+  0.329  0.346  0.907  0.000
  Li2223  Li1+  0.348  0.342  0.893  0.000
  Li2227  Li1+  0.348  0.365  0.814  0.000
  Li2228  Li1+  0.358  0.221  0.949  0.000
  Li2233  Li1+  0.352  0.244  0.869  0.000
  Li2235  Li1+  0.348  0.204  0.882  0.000
  Li2236  Li1+  0.360  0.254  0.982  0.000
  Li2239  Li1+  0.369  0.350  0.989  0.000
  Li2240  Li1+  0.381  0.240  0.851  0.000
  Li2241  Li1+  0.379  0.400  0.017  0.000
  Li2250  Li1+  0.229  0.550  0.189  0.000
  Li2251  Li1+  0.398  0.425  0.050  0.000
  Li2261  Li1+  0.250  0.506  0.019  0.000
  Li2264  Li1+  0.252  0.569  0.014  0.000
  Li2265  Li1+  0.250  0.431  0.011  0.000
  Li2266  Li1+  0.252  0.456  0.032  0.000
  Li2269  Li1+  0.248  0.598  0.081  0.000
  Li2273  Li1+  0.296  0.467  0.050  0.000
  Li2279  Li1+  0.294  0.552  0.181  0.000
  Li2281  Li1+  0.302  0.475  0.115  0.000
  Li2283  Li1+  0.329  0.546  0.107  0.000
  Li2286  Li1+  0.350  0.479  0.014  0.000
  Li2290  Li1+  0.348  0.438  0.015  0.000
  Li2292  Li1+  0.358  0.421  0.149  0.000
  Li2300  Li1+  0.360  0.454  0.182  0.000
  Li2301  Li1+  0.350  0.517  0.018  0.000
  Li2303  Li1+  0.369  0.550  0.189  0.000
  Li2304  Li1+  0.381  0.440  0.051  0.000
  Li2308  Li1+  0.200  0.423  0.382  0.000
  Li2313  Li1+  0.206  0.542  0.315  0.000
  Li2325  Li1+  0.250  0.506  0.219  0.000
  Li2327  Li1+  0.248  0.462  0.289  0.000
  Li2333  Li1+  0.248  0.598  0.281  0.000
  Li2338  Li1+  0.256  0.467  0.354  0.000
  Li2343  Li1+  0.294  0.552  0.381  0.000
  Li2347  Li1+  0.329  0.546  0.307  0.000
  Li2350  Li1+  0.350  0.479  0.214  0.000
  Li2354  Li1+  0.348  0.437  0.215  0.000
  Li2356  Li1+  0.358  0.421  0.349  0.000
  Li2361  Li1+  0.352  0.444  0.269  0.000
  Li2362  Li1+  0.346  0.473  0.351  0.000
  Li2363  Li1+  0.348  0.404  0.282  0.000
  Li2365  Li1+  0.350  0.517  0.218  0.000
  Li2368  Li1+  0.381  0.440  0.251  0.000
  Li2370  Li1+  0.223  0.400  0.414  0.000
  Li2378  Li1+  0.229  0.550  0.589  0.000
  Li2380  Li1+  0.217  0.442  0.453  0.000
  Li2385  Li1+  0.398  0.400  0.451  0.000
  Li2389  Li1+  0.250  0.506  0.419  0.000
  Li2397  Li1+  0.248  0.598  0.481  0.000
  Li2407  Li1+  0.294  0.552  0.581  0.000
  Li2414  Li1+  0.350  0.479  0.414  0.000
  Li2416  Li1+  0.348  0.550  0.556  0.000
  Li2420  Li1+  0.358  0.421  0.549  0.000
  Li2426  Li1+  0.346  0.473  0.551  0.000
  Li2427  Li1+  0.348  0.404  0.482  0.000
  Li2429  Li1+  0.350  0.517  0.418  0.000
  Li2433  Li1+  0.379  0.400  0.617  0.000
  Li2434  Li1+  0.223  0.400  0.614  0.000
  Li2436  Li1+  0.200  0.423  0.782  0.000
  Li2441  Li1+  0.206  0.542  0.715  0.000
  Li2443  Li1+  0.398  0.425  0.650  0.000
  Li2453  Li1+  0.250  0.506  0.619  0.000
  Li2454  Li1+  0.246  0.446  0.672  0.000
  Li2455  Li1+  0.248  0.462  0.689  0.000
  Li2461  Li1+  0.248  0.598  0.681  0.000
  Li2471  Li1+  0.294  0.552  0.781  0.000
  Li2472  Li1+  0.298  0.510  0.651  0.000
  Li2473  Li1+  0.302  0.475  0.715  0.000
  Li2475  Li1+  0.329  0.546  0.707  0.000
  Li2477  Li1+  0.346  0.444  0.714  0.000
  Li2478  Li1+  0.350  0.479  0.614  0.000
  Li2483  Li1+  0.348  0.565  0.614  0.000
  Li2484  Li1+  0.358  0.421  0.749  0.000
  Li2490  Li1+  0.346  0.473  0.751  0.000
  Li2491  Li1+  0.348  0.404  0.682  0.000
  Li2492  Li1+  0.360  0.454  0.782  0.000
  Li2493  Li1+  0.350  0.517  0.618  0.000
  Li2496  Li1+  0.381  0.440  0.651  0.000
  Li2497  Li1+  0.379  0.400  0.817  0.000
  Li2500  Li1+  0.200  0.423  0.982  0.000
  Li2505  Li1+  0.206  0.542  0.915  0.000
  Li2507  Li1+  0.398  0.425  0.850  0.000
  Li2514  Li1+  0.248  0.408  0.882  0.000
  Li2530  Li1+  0.256  0.467  0.954  0.000
  Li2537  Li1+  0.302  0.475  0.915  0.000
  Li2554  Li1+  0.346  0.473  0.951  0.000
  Li2560  Li1+  0.381  0.440  0.851  0.000
  Li2561  Li1+  0.379  0.600  0.017  0.000
  Li2564  Li1+  0.200  0.623  0.182  0.000
  Li2584  Li1+  0.252  0.769  0.014  0.000
  Li2589  Li1+  0.248  0.798  0.081  0.000
  Li2599  Li1+  0.294  0.752  0.181  0.000
  Li2601  Li1+  0.302  0.675  0.115  0.000
  Li2606  Li1+  0.350  0.679  0.014  0.000
  Li2612  Li1+  0.358  0.621  0.149  0.000
  Li2618  Li1+  0.346  0.673  0.151  0.000
  Li2621  Li1+  0.350  0.717  0.018  0.000
  Li2627  Li1+  0.204  0.792  0.350  0.000
  Li2628  Li1+  0.200  0.623  0.382  0.000
  Li2636  Li1+  0.217  0.642  0.253  0.000
  Li2638  Li1+  0.398  0.792  0.247  0.000
  Li2645  Li1+  0.250  0.706  0.219  0.000
  Li2648  Li1+  0.252  0.769  0.214  0.000
  Li2650  Li1+  0.252  0.656  0.232  0.000
  Li2658  Li1+  0.256  0.667  0.354  0.000
  Li2663  Li1+  0.294  0.752  0.381  0.000
  Li2664  Li1+  0.298  0.710  0.251  0.000
  Li2665  Li1+  0.302  0.675  0.315  0.000
  Li2667  Li1+  0.329  0.746  0.307  0.000
  Li2668  Li1+  0.350  0.662  0.288  0.000
  Li2676  Li1+  0.358  0.621  0.349  0.000
  Li2688  Li1+  0.381  0.640  0.251  0.000
  Li2692  Li1+  0.200  0.623  0.582  0.000
  Li2699  Li1+  0.398  0.625  0.450  0.000
  Li2700  Li1+  0.217  0.642  0.453  0.000
  Li2702  Li1+  0.398  0.792  0.447  0.000
  Li2705  Li1+  0.398  0.600  0.451  0.000
  Li2706  Li1+  0.248  0.608  0.482  0.000
  Li2709  Li1+  0.250  0.706  0.419  0.000
  Li2710  Li1+  0.246  0.646  0.472  0.000
  Li2729  Li1+  0.302  0.675  0.515  0.000
  Li2732  Li1+  0.350  0.662  0.488  0.000
  Li2736  Li1+  0.348  0.750  0.556  0.000
  Li2740  Li1+  0.358  0.621  0.549  0.000
  Li2743  Li1+  0.348  0.781  0.479  0.000
  Li2746  Li1+  0.346  0.673  0.551  0.000
  Li2747  Li1+  0.348  0.604  0.482  0.000
  Li2748  Li1+  0.360  0.654  0.582  0.000
  Li2749  Li1+  0.350  0.717  0.418  0.000
  Li2752  Li1+  0.381  0.640  0.451  0.000
  Li2754  Li1+  0.223  0.600  0.614  0.000
  Li2756  Li1+  0.200  0.623  0.782  0.000
  Li2761  Li1+  0.206  0.742  0.715  0.000
  Li2770  Li1+  0.248  0.608  0.682  0.000
  Li2774  Li1+  0.246  0.646  0.672  0.000
  Li2775  Li1+  0.248  0.662  0.689  0.000
  Li2797  Li1+  0.346  0.644  0.714  0.000
  Li2804  Li1+  0.358  0.621  0.749  0.000
  Li2807  Li1+  0.348  0.781  0.679  0.000
  Li2810  Li1+  0.346  0.673  0.751  0.000
  Li2815  Li1+  0.369  0.750  0.789  0.000
  Li2816  Li1+  0.381  0.640  0.651  0.000
  Li2820  Li1+  0.200  0.623  0.982  0.000
  Li2825  Li1+  0.206  0.742  0.915  0.000
  Li2827  Li1+  0.398  0.625  0.850  0.000
  Li2833  Li1+  0.398  0.600  0.851  0.000
  Li2838  Li1+  0.246  0.646  0.872  0.000
  Li2840  Li1+  0.252  0.769  0.814  0.000
  Li2847  Li1+  0.250  0.710  0.821  0.000
  Li2855  Li1+  0.294  0.752  0.981  0.000
  Li2857  Li1+  0.302  0.675  0.915  0.000
  Li2866  Li1+  0.348  0.637  0.815  0.000
  Li2868  Li1+  0.358  0.621  0.949  0.000
  Li2871  Li1+  0.348  0.781  0.879  0.000
  Li2873  Li1+  0.352  0.644  0.869  0.000
  Li2889  Li1+  0.206  0.942  0.115  0.000
  Li2891  Li1+  0.398  0.825  0.050  0.000
  Li2892  Li1+  0.217  0.842  0.053  0.000
  Li2898  Li1+  0.248  0.808  0.082  0.000
  Li2909  Li1+  0.248  0.998  0.081  0.000
  Li2911  Li1+  0.250  0.910  0.021  0.000
  Li2917  Li1+  0.298  0.900  0.047  0.000
  Li2920  Li1+  0.298  0.910  0.051  0.000
  Li2921  Li1+  0.302  0.875  0.115  0.000
  Li2923  Li1+  0.329  0.946  0.107  0.000
  Li2926  Li1+  0.350  0.879  0.014  0.000
  Li2938  Li1+  0.346  0.873  0.151  0.000
  Li2945  Li1+  0.379  0.800  0.217  0.000
  Li2946  Li1+  0.223  0.800  0.214  0.000
  Li2948  Li1+  0.200  0.823  0.382  0.000
  Li2953  Li1+  0.206  0.942  0.315  0.000
  Li2956  Li1+  0.217  0.842  0.253  0.000
  Li2968  Li1+  0.252  0.969  0.214  0.000
  Li2973  Li1+  0.248  0.998  0.281  0.000
  Li2976  Li1+  0.254  0.852  0.369  0.000
  Li2978  Li1+  0.256  0.867  0.354  0.000
  Li2983  Li1+  0.294  0.952  0.381  0.000
  Li2985  Li1+  0.302  0.875  0.315  0.000
  Li2988  Li1+  0.350  0.862  0.288  0.000
  Li2992  Li1+  0.348  0.950  0.356  0.000
  Li2994  Li1+  0.348  0.837  0.215  0.000
  Li2995  Li1+  0.348  0.965  0.214  0.000
  Li2996  Li1+  0.358  0.821  0.349  0.000
  Li2999  Li1+  0.348  0.981  0.279  0.000
  Li3001  Li1+  0.352  0.844  0.269  0.000
  Li3002  Li1+  0.346  0.873  0.351  0.000
  Li3003  Li1+  0.348  0.804  0.282  0.000
  Li3005  Li1+  0.350  0.917  0.218  0.000
  Li3009  Li1+  0.379  0.800  0.417  0.000
  Li3010  Li1+  0.223  0.800  0.414  0.000
  Li3020  Li1+  0.217  0.842  0.453  0.000
  Li3029  Li1+  0.250  0.906  0.419  0.000
  Li3032  Li1+  0.252  0.969  0.414  0.000
  Li3033  Li1+  0.250  0.831  0.411  0.000
  Li3034  Li1+  0.252  0.856  0.432  0.000
  Li3037  Li1+  0.248  0.998  0.481  0.000
  Li3054  Li1+  0.350  0.879  0.414  0.000
  Li3059  Li1+  0.348  0.965  0.414  0.000
  Li3060  Li1+  0.358  0.821  0.549  0.000
  Li3067  Li1+  0.348  0.804  0.482  0.000
  Li3072  Li1+  0.381  0.840  0.451  0.000
  Li3073  Li1+  0.379  0.800  0.617  0.000
  Li3074  Li1+  0.223  0.800  0.614  0.000
  Li3076  Li1+  0.200  0.823  0.782  0.000
  Li3081  Li1+  0.206  0.942  0.715  0.000
  Li3084  Li1+  0.217  0.842  0.653  0.000
  Li3093  Li1+  0.250  0.906  0.619  0.000
  Li3096  Li1+  0.252  0.969  0.614  0.000
  Li3101  Li1+  0.248  0.998  0.681  0.000
  Li3106  Li1+  0.256  0.867  0.754  0.000
  Li3111  Li1+  0.294  0.952  0.781  0.000
  Li3113  Li1+  0.302  0.875  0.715  0.000
  Li3120  Li1+  0.348  0.950  0.756  0.000
  Li3124  Li1+  0.358  0.821  0.749  0.000
  Li3127  Li1+  0.348  0.981  0.679  0.000
  Li3130  Li1+  0.346  0.873  0.751  0.000
  Li3131  Li1+  0.348  0.804  0.682  0.000
  Li3132  Li1+  0.360  0.854  0.782  0.000
  Li3133  Li1+  0.350  0.917  0.618  0.000
  Li3137  Li1+  0.379  0.800  0.817  0.000
  Li3138  Li1+  0.223  0.800  0.814  0.000
  Li3148  Li1+  0.217  0.842  0.853  0.000
  Li3157  Li1+  0.250  0.906  0.819  0.000
  Li3160  Li1+  0.252  0.969  0.814  0.000
  Li3170  Li1+  0.256  0.867  0.954  0.000
  Li3180  Li1+  0.350  0.862  0.888  0.000
  Li3182  Li1+  0.350  0.879  0.814  0.000
  Li3187  Li1+  0.348  0.965  0.814  0.000
  Li3191  Li1+  0.348  0.981  0.879  0.000
  Li3194  Li1+  0.346  0.873  0.951  0.000
  Li3196  Li1+  0.360  0.854  0.982  0.000
  Li3197  Li1+  0.350  0.917  0.818  0.000
  Li3201  Li1+  0.579  -0.000  0.017  0.000
  Li3209  Li1+  0.406  0.142  0.115  0.000
  Li3212  Li1+  0.417  0.042  0.053  0.000
  Li3218  Li1+  0.448  0.008  0.082  0.000
  Li3222  Li1+  0.446  0.046  0.072  0.000
  Li3229  Li1+  0.448  0.198  0.081  0.000
  Li3234  Li1+  0.456  0.067  0.154  0.000
  Li3239  Li1+  0.494  0.152  0.181  0.000
  Li3241  Li1+  0.502  0.075  0.115  0.000
  Li3243  Li1+  0.529  0.146  0.107  0.000
  Li3252  Li1+  0.558  0.021  0.149  0.000
  Li3259  Li1+  0.548  0.004  0.082  0.000
  Li3265  Li1+  0.579  -0.000  0.217  0.000
  Li3266  Li1+  0.423  -0.000  0.214  0.000
  Li3273  Li1+  0.406  0.142  0.315  0.000
  Li3275  Li1+  0.598  0.025  0.250  0.000
  Li3285  Li1+  0.450  0.106  0.219  0.000
  Li3298  Li1+  0.456  0.067  0.354  0.000
  Li3301  Li1+  0.498  0.100  0.247  0.000
  Li3303  Li1+  0.494  0.152  0.381  0.000
  Li3305  Li1+  0.502  0.075  0.315  0.000
  Li3307  Li1+  0.529  0.146  0.307  0.000
  Li3314  Li1+  0.548  0.037  0.215  0.000
  Li3315  Li1+  0.548  0.165  0.214  0.000
  Li3324  Li1+  0.560  0.054  0.382  0.000
  Li3325  Li1+  0.550  0.117  0.218  0.000
  Li3326  Li1+  0.548  0.140  0.346  0.000
  Li3328  Li1+  0.581  0.040  0.251  0.000
  Li3338  Li1+  0.429  0.150  0.589  0.000
  Li3348  Li1+  0.446  0.156  0.550  0.000
  Li3349  Li1+  0.450  0.106  0.419  0.000
  Li3357  Li1+  0.448  0.198  0.481  0.000
  Li3361  Li1+  0.496  0.067  0.450  0.000
  Li3362  Li1+  0.456  0.067  0.554  0.000
  Li3367  Li1+  0.494  0.152  0.581  0.000
  Li3369  Li1+  0.502  0.075  0.515  0.000
  Li3374  Li1+  0.550  0.079  0.414  0.000
  Li3378  Li1+  0.548  0.037  0.415  0.000
  Li3384  Li1+  0.548  0.050  0.426  0.000
  Li3386  Li1+  0.546  0.073  0.551  0.000
  Li3389  Li1+  0.550  0.117  0.418  0.000
  Li3394  Li1+  0.423  -0.000  0.614  0.000
  Li3403  Li1+  0.598  0.025  0.650  0.000
  Li3404  Li1+  0.417  0.042  0.653  0.000
  Li3410  Li1+  0.448  0.008  0.682  0.000
  Li3413  Li1+  0.450  0.106  0.619  0.000
  Li3421  Li1+  0.448  0.198  0.681  0.000
  Li3426  Li1+  0.456  0.067  0.754  0.000
  Li3431  Li1+  0.494  0.152  0.781  0.000
  Li3433  Li1+  0.502  0.075  0.715  0.000
  Li3435  Li1+  0.529  0.146  0.707  0.000
  Li3436  Li1+  0.550  0.062  0.688  0.000
  Li3444  Li1+  0.558  0.021  0.749  0.000
  Li3447  Li1+  0.548  0.181  0.679  0.000
  Li3450  Li1+  0.546  0.073  0.751  0.000
  Li3452  Li1+  0.560  0.054  0.782  0.000
  Li3456  Li1+  0.581  0.040  0.651  0.000
  Li3458  Li1+  0.423  -0.000  0.814  0.000
  Li3459  Li1+  0.404  0.192  0.950  0.000
  Li3466  Li1+  0.429  0.150  0.989  0.000
  Li3467  Li1+  0.598  0.025  0.850  0.000
  Li3468  Li1+  0.417  0.042  0.853  0.000
  Li3470  Li1+  0.598  0.192  0.847  0.000
  Li3473  Li1+  0.598  -0.000  0.851  0.000
  Li3486  Li1+  0.456  0.042  0.914  0.000
  Li3490  Li1+  0.456  0.067  0.954  0.000
  Li3495  Li1+  0.494  0.152  0.981  0.000
  Li3507  Li1+  0.548  0.165  0.814  0.000
  Li3511  Li1+  0.548  0.181  0.879  0.000
  Li3514  Li1+  0.546  0.073  0.951  0.000
  Li3515  Li1+  0.548  0.004  0.882  0.000
  Li3517  Li1+  0.550  0.117  0.818  0.000
  Li3521  Li1+  0.579  0.200  0.017  0.000
  Li3522  Li1+  0.423  0.200  0.014  0.000
  Li3524  Li1+  0.400  0.223  0.182  0.000
  Li3530  Li1+  0.429  0.350  0.189  0.000
  Li3532  Li1+  0.417  0.242  0.053  0.000
  Li3538  Li1+  0.448  0.208  0.082  0.000
  Li3541  Li1+  0.450  0.306  0.019  0.000
  Li3549  Li1+  0.448  0.398  0.081  0.000
  Li3554  Li1+  0.456  0.267  0.154  0.000
  Li3561  Li1+  0.502  0.275  0.115  0.000
  Li3566  Li1+  0.550  0.279  0.014  0.000
  Li3578  Li1+  0.546  0.273  0.151  0.000
  Li3582  Li1+  0.548  0.340  0.146  0.000
  Li3584  Li1+  0.581  0.240  0.051  0.000
  Li3585  Li1+  0.579  0.200  0.217  0.000
  Li3593  Li1+  0.406  0.342  0.315  0.000
  Li3613  Li1+  0.448  0.398  0.281  0.000
  Li3618  Li1+  0.456  0.267  0.354  0.000
  Li3624  Li1+  0.498  0.310  0.251  0.000
  Li3625  Li1+  0.502  0.275  0.315  0.000
  Li3630  Li1+  0.550  0.279  0.214  0.000
  Li3636  Li1+  0.558  0.221  0.349  0.000
  Li3642  Li1+  0.546  0.273  0.351  0.000
  Li3645  Li1+  0.550  0.317  0.218  0.000
  Li3646  Li1+  0.548  0.340  0.346  0.000
  Li3647  Li1+  0.569  0.350  0.389  0.000
  Li3649  Li1+  0.579  0.200  0.417  0.000
  Li3650  Li1+  0.423  0.200  0.414  0.000
  Li3652  Li1+  0.400  0.223  0.582  0.000
  Li3658  Li1+  0.429  0.350  0.589  0.000
  Li3659  Li1+  0.598  0.225  0.450  0.000
  Li3666  Li1+  0.448  0.208  0.482  0.000
  Li3682  Li1+  0.456  0.267  0.554  0.000
  Li3687  Li1+  0.494  0.352  0.581  0.000
  Li3689  Li1+  0.502  0.275  0.515  0.000
  Li3694  Li1+  0.550  0.279  0.414  0.000
  Li3696  Li1+  0.548  0.350  0.556  0.000
  Li3698  Li1+  0.548  0.237  0.415  0.000
  Li3703  Li1+  0.548  0.381  0.479  0.000
  Li3709  Li1+  0.550  0.317  0.418  0.000
  Li3721  Li1+  0.406  0.342  0.715  0.000
  Li3722  Li1+  0.429  0.350  0.789  0.000
  Li3730  Li1+  0.448  0.208  0.682  0.000
  Li3733  Li1+  0.450  0.306  0.619  0.000
  Li3735  Li1+  0.448  0.262  0.689  0.000
  Li3736  Li1+  0.452  0.369  0.614  0.000
  Li3741  Li1+  0.448  0.398  0.681  0.000
  Li3746  Li1+  0.456  0.267  0.754  0.000
  Li3753  Li1+  0.502  0.275  0.715  0.000
  Li3760  Li1+  0.548  0.350  0.756  0.000
  Li3763  Li1+  0.548  0.365  0.614  0.000
  Li3764  Li1+  0.558  0.221  0.749  0.000
  Li3767  Li1+  0.548  0.381  0.679  0.000
  Li3770  Li1+  0.546  0.273  0.751  0.000
  Li3776  Li1+  0.581  0.240  0.651  0.000
  Li3777  Li1+  0.579  0.200  0.817  0.000
  Li3780  Li1+  0.400  0.223  0.982  0.000
  Li3793  Li1+  0.598  0.200  0.851  0.000
  Li3797  Li1+  0.450  0.306  0.819  0.000
  Li3810  Li1+  0.456  0.267  0.954  0.000
  Li3815  Li1+  0.494  0.352  0.981  0.000
  Li3817  Li1+  0.502  0.275  0.915  0.000
  Li3819  Li1+  0.529  0.346  0.907  0.000
  Li3824  Li1+  0.548  0.350  0.956  0.000
  Li3834  Li1+  0.546  0.273  0.951  0.000
  Li3835  Li1+  0.548  0.204  0.882  0.000
  Li3852  Li1+  0.417  0.442  0.053  0.000
  Li3861  Li1+  0.450  0.506  0.019  0.000
  Li3869  Li1+  0.448  0.598  0.081  0.000
  Li3884  Li1+  0.550  0.462  0.088  0.000
  Li3891  Li1+  0.548  0.565  0.014  0.000
  Li3892  Li1+  0.558  0.421  0.149  0.000
  Li3897  Li1+  0.552  0.444  0.069  0.000
  Li3901  Li1+  0.550  0.517  0.018  0.000
  Li3904  Li1+  0.581  0.440  0.051  0.000
  Li3905  Li1+  0.579  0.400  0.217  0.000
  Li3907  Li1+  0.404  0.592  0.350  0.000
  Li3909  Li1+  0.448  0.442  0.328  0.000
  Li3916  Li1+  0.417  0.442  0.253  0.000
  Li3922  Li1+  0.448  0.408  0.282  0.000
  Li3926  Li1+  0.446  0.446  0.272  0.000
  Li3935  Li1+  0.450  0.510  0.221  0.000
  Li3938  Li1+  0.456  0.467  0.354  0.000
  Li3943  Li1+  0.494  0.552  0.381  0.000
  Li3945  Li1+  0.502  0.475  0.315  0.000
  Li3947  Li1+  0.529  0.546  0.307  0.000
  Li3950  Li1+  0.550  0.479  0.214  0.000
  Li3952  Li1+  0.548  0.550  0.356  0.000
  Li3955  Li1+  0.548  0.565  0.214  0.000
  Li3959  Li1+  0.548  0.581  0.279  0.000
  Li3962  Li1+  0.546  0.473  0.351  0.000
  Li3964  Li1+  0.560  0.454  0.382  0.000
  Li3965  Li1+  0.550  0.517  0.218  0.000
  Li3968  Li1+  0.581  0.440  0.251  0.000
  Li3978  Li1+  0.429  0.550  0.589  0.000
  Li3988  Li1+  0.446  0.556  0.550  0.000
  Li3989  Li1+  0.450  0.506  0.419  0.000
  Li3991  Li1+  0.448  0.462  0.489  0.000
  Li3992  Li1+  0.452  0.569  0.414  0.000
  Li3994  Li1+  0.452  0.456  0.432  0.000
  Li3995  Li1+  0.448  0.552  0.401  0.000
  Li3997  Li1+  0.448  0.598  0.481  0.000
  Li4002  Li1+  0.456  0.467  0.554  0.000
  Li4008  Li1+  0.498  0.510  0.451  0.000
  Li4009  Li1+  0.502  0.475  0.515  0.000
  Li4011  Li1+  0.529  0.546  0.507  0.000
  Li4012  Li1+  0.550  0.462  0.488  0.000
  Li4014  Li1+  0.550  0.479  0.414  0.000
  Li4020  Li1+  0.558  0.421  0.549  0.000
  Li4026  Li1+  0.546  0.473  0.551  0.000
  Li4027  Li1+  0.548  0.404  0.482  0.000
  Li4028  Li1+  0.560  0.454  0.582  0.000
  Li4029  Li1+  0.550  0.517  0.418  0.000
  Li4033  Li1+  0.579  0.400  0.617  0.000
  Li4034  Li1+  0.423  0.400  0.614  0.000
  Li4044  Li1+  0.417  0.442  0.653  0.000
  Li4053  Li1+  0.450  0.506  0.619  0.000
  Li4061  Li1+  0.448  0.598  0.681  0.000
  Li4071  Li1+  0.494  0.552  0.781  0.000
  Li4075  Li1+  0.529  0.546  0.707  0.000
  Li4081  Li1+  0.550  0.552  0.603  0.000
  Li4082  Li1+  0.548  0.437  0.615  0.000
  Li4090  Li1+  0.546  0.473  0.751  0.000
  Li4091  Li1+  0.548  0.404  0.682  0.000
  Li4093  Li1+  0.550  0.517  0.618  0.000
  Li4095  Li1+  0.569  0.550  0.789  0.000
  Li4096  Li1+  0.581  0.440  0.651  0.000
  Li4105  Li1+  0.406  0.542  0.915  0.000
  Li4107  Li1+  0.598  0.425  0.850  0.000
  Li4108  Li1+  0.417  0.442  0.853  0.000
  Li4120  Li1+  0.452  0.569  0.814  0.000
  Li4125  Li1+  0.448  0.598  0.881  0.000
  Li4126  Li1+  0.456  0.442  0.914  0.000
  Li4130  Li1+  0.456  0.467  0.954  0.000
  Li4140  Li1+  0.550  0.462  0.888  0.000
  Li4142  Li1+  0.550  0.479  0.814  0.000
  Li4145  Li1+  0.550  0.552  0.803  0.000
  Li4147  Li1+  0.548  0.565  0.814  0.000
  Li4148  Li1+  0.558  0.421  0.949  0.000
  Li4151  Li1+  0.548  0.581  0.879  0.000
  Li4157  Li1+  0.550  0.517  0.818  0.000
  Li4160  Li1+  0.581  0.440  0.851  0.000
  Li4164  Li1+  0.400  0.623  0.182  0.000
  Li4170  Li1+  0.429  0.750  0.189  0.000
  Li4171  Li1+  0.598  0.625  0.050  0.000
  Li4184  Li1+  0.452  0.769  0.014  0.000
  Li4193  Li1+  0.496  0.667  0.050  0.000
  Li4194  Li1+  0.456  0.667  0.154  0.000
  Li4201  Li1+  0.502  0.675  0.115  0.000
  Li4206  Li1+  0.550  0.679  0.014  0.000
  Li4212  Li1+  0.558  0.621  0.149  0.000
  Li4214  Li1+  0.552  0.746  0.140  0.000
  Li4215  Li1+  0.548  0.781  0.079  0.000
  Li4217  Li1+  0.552  0.644  0.069  0.000
  Li4218  Li1+  0.546  0.673  0.151  0.000
  Li4219  Li1+  0.548  0.604  0.082  0.000
  Li4221  Li1+  0.550  0.717  0.018  0.000
  Li4224  Li1+  0.581  0.640  0.051  0.000
  Li4225  Li1+  0.579  0.600  0.217  0.000
  Li4226  Li1+  0.423  0.600  0.214  0.000
  Li4245  Li1+  0.450  0.706  0.219  0.000
  Li4263  Li1+  0.494  0.752  0.381  0.000
  Li4264  Li1+  0.498  0.710  0.251  0.000
  Li4265  Li1+  0.502  0.675  0.315  0.000
  Li4267  Li1+  0.529  0.746  0.307  0.000
  Li4268  Li1+  0.550  0.662  0.288  0.000
  Li4270  Li1+  0.550  0.679  0.214  0.000
  Li4274  Li1+  0.548  0.637  0.215  0.000
  Li4275  Li1+  0.548  0.765  0.214  0.000
  Li4276  Li1+  0.558  0.621  0.349  0.000
  Li4278  Li1+  0.552  0.746  0.340  0.000
  Li4279  Li1+  0.548  0.781  0.279  0.000
  Li4281  Li1+  0.552  0.644  0.269  0.000
  Li4283  Li1+  0.548  0.604  0.282  0.000
  Li4292  Li1+  0.400  0.623  0.582  0.000
  Li4297  Li1+  0.406  0.742  0.515  0.000
  Li4298  Li1+  0.429  0.750  0.589  0.000
  Li4299  Li1+  0.598  0.625  0.450  0.000
  Li4306  Li1+  0.448  0.608  0.482  0.000
  Li4310  Li1+  0.446  0.646  0.472  0.000
  Li4311  Li1+  0.448  0.662  0.489  0.000
  Li4312  Li1+  0.452  0.769  0.414  0.000
  Li4317  Li1+  0.448  0.798  0.481  0.000
  Li4319  Li1+  0.450  0.710  0.421  0.000
  Li4322  Li1+  0.456  0.667  0.554  0.000
  Li4329  Li1+  0.502  0.675  0.515  0.000
  Li4336  Li1+  0.548  0.750  0.556  0.000
  Li4343  Li1+  0.548  0.781  0.479  0.000
  Li4347  Li1+  0.548  0.604  0.482  0.000
  Li4372  Li1+  0.446  0.756  0.750  0.000
  Li4373  Li1+  0.450  0.706  0.619  0.000
  Li4376  Li1+  0.452  0.769  0.614  0.000
  Li4378  Li1+  0.452  0.656  0.632  0.000
  Li4381  Li1+  0.448  0.798  0.681  0.000
  Li4391  Li1+  0.494  0.752  0.781  0.000
  Li4403  Li1+  0.548  0.765  0.614  0.000
  Li4407  Li1+  0.548  0.781  0.679  0.000
  Li4412  Li1+  0.560  0.654  0.782  0.000
  Li4413  Li1+  0.550  0.717  0.618  0.000
  Li4417  Li1+  0.579  0.600  0.817  0.000
  Li4425  Li1+  0.406  0.742  0.915  0.000
  Li4428  Li1+  0.417  0.642  0.853  0.000
  Li4437  Li1+  0.450  0.706  0.819  0.000
  Li4440  Li1+  0.452  0.769  0.814  0.000
  Li4443  Li1+  0.448  0.752  0.801  0.000
  Li4455  Li1+  0.494  0.752  0.981  0.000
  Li4456  Li1+  0.498  0.710  0.851  0.000
  Li4457  Li1+  0.502  0.675  0.915  0.000
  Li4459  Li1+  0.529  0.746  0.907  0.000
  Li4468  Li1+  0.558  0.621  0.949  0.000
  Li4474  Li1+  0.546  0.673  0.951  0.000
  Li4476  Li1+  0.560  0.654  0.982  0.000
  Li4477  Li1+  0.550  0.717  0.818  0.000
  Li4480  Li1+  0.581  0.640  0.851  0.000
  Li4481  Li1+  0.579  0.800  0.017  0.000
  Li4482  Li1+  0.423  0.800  0.014  0.000
  Li4491  Li1+  0.598  0.825  0.050  0.000
  Li4492  Li1+  0.417  0.842  0.053  0.000
  Li4494  Li1+  0.598  0.992  0.047  0.000
  Li4497  Li1+  0.598  0.800  0.051  0.000
  Li4509  Li1+  0.448  0.998  0.081  0.000
  Li4510  Li1+  0.456  0.842  0.114  0.000
  Li4511  Li1+  0.450  0.910  0.021  0.000
  Li4519  Li1+  0.494  0.952  0.181  0.000
  Li4521  Li1+  0.502  0.875  0.115  0.000
  Li4539  Li1+  0.548  0.804  0.082  0.000
  Li4541  Li1+  0.550  0.917  0.018  0.000
  Li4545  Li1+  0.579  0.800  0.217  0.000
  Li4548  Li1+  0.400  0.823  0.382  0.000
  Li4553  Li1+  0.406  0.942  0.315  0.000
  Li4555  Li1+  0.598  0.825  0.250  0.000
  Li4565  Li1+  0.450  0.906  0.219  0.000
  Li4567  Li1+  0.448  0.862  0.289  0.000
  Li4568  Li1+  0.452  0.969  0.214  0.000
  Li4573  Li1+  0.448  0.998  0.281  0.000
  Li4578  Li1+  0.456  0.867  0.354  0.000
  Li4584  Li1+  0.498  0.910  0.251  0.000
  Li4585  Li1+  0.502  0.875  0.315  0.000
  Li4590  Li1+  0.550  0.879  0.214  0.000
  Li4596  Li1+  0.558  0.821  0.349  0.000
  Li4599  Li1+  0.548  0.981  0.279  0.000
  Li4602  Li1+  0.546  0.873  0.351  0.000
  Li4603  Li1+  0.548  0.804  0.282  0.000
  Li4604  Li1+  0.560  0.854  0.382  0.000
  Li4605  Li1+  0.550  0.917  0.218  0.000
  Li4608  Li1+  0.581  0.840  0.251  0.000
  Li4609  Li1+  0.579  0.800  0.417  0.000
  Li4610  Li1+  0.423  0.800  0.414  0.000
  Li4612  Li1+  0.400  0.823  0.582  0.000
  Li4626  Li1+  0.448  0.808  0.482  0.000
  Li4629  Li1+  0.450  0.906  0.419  0.000
  Li4632  Li1+  0.452  0.969  0.414  0.000
  Li4634  Li1+  0.452  0.856  0.432  0.000
  Li4637  Li1+  0.448  0.998  0.481  0.000
  Li4642  Li1+  0.456  0.867  0.554  0.000
  Li4647  Li1+  0.494  0.952  0.581  0.000
  Li4649  Li1+  0.502  0.875  0.515  0.000
  Li4659  Li1+  0.548  0.965  0.414  0.000
  Li4660  Li1+  0.558  0.821  0.549  0.000
  Li4663  Li1+  0.548  0.981  0.479  0.000
  Li4669  Li1+  0.550  0.917  0.418  0.000
  Li4672  Li1+  0.581  0.840  0.451  0.000
  Li4673  Li1+  0.579  0.800  0.617  0.000
  Li4674  Li1+  0.423  0.800  0.614  0.000
  Li4676  Li1+  0.400  0.823  0.782  0.000
  Li4681  Li1+  0.406  0.942  0.715  0.000
  Li4683  Li1+  0.598  0.825  0.650  0.000
  Li4684  Li1+  0.417  0.842  0.653  0.000
  Li4693  Li1+  0.450  0.906  0.619  0.000
  Li4696  Li1+  0.452  0.969  0.614  0.000
  Li4697  Li1+  0.450  0.831  0.611  0.000
  Li4698  Li1+  0.452  0.856  0.632  0.000
  Li4701  Li1+  0.448  0.998  0.681  0.000
  Li4702  Li1+  0.456  0.842  0.714  0.000
  Li4706  Li1+  0.456  0.867  0.754  0.000
  Li4711  Li1+  0.494  0.952  0.781  0.000
  Li4723  Li1+  0.548  0.965  0.614  0.000
  Li4724  Li1+  0.558  0.821  0.749  0.000
  Li4727  Li1+  0.548  0.981  0.679  0.000
  Li4732  Li1+  0.560  0.854  0.782  0.000
  Li4733  Li1+  0.550  0.917  0.618  0.000
  Li4735  Li1+  0.569  0.950  0.789  0.000
  Li4736  Li1+  0.581  0.840  0.651  0.000
  Li4738  Li1+  0.423  0.800  0.814  0.000
  Li4740  Li1+  0.400  0.823  0.982  0.000
  Li4741  Li1+  0.448  0.842  0.928  0.000
  Li4751  Li1+  0.442  0.854  0.983  0.000
  Li4757  Li1+  0.450  0.906  0.819  0.000
  Li4760  Li1+  0.452  0.969  0.814  0.000
  Li4768  Li1+  0.454  0.852  0.969  0.000
  Li4775  Li1+  0.494  0.952  0.981  0.000
  Li4777  Li1+  0.502  0.875  0.915  0.000
  Li4780  Li1+  0.550  0.862  0.888  0.000
  Li4782  Li1+  0.550  0.879  0.814  0.000
  Li4793  Li1+  0.552  0.844  0.869  0.000
  Li4795  Li1+  0.548  0.804  0.882  0.000
  Li4802  Li1+  0.623  -0.000  0.014  0.000
  Li4804  Li1+  0.600  0.023  0.182  0.000
  Li4809  Li1+  0.606  0.142  0.115  0.000
  Li4811  Li1+  0.798  0.025  0.050  0.000
  Li4812  Li1+  0.617  0.042  0.053  0.000
  Li4817  Li1+  0.798  -0.000  0.051  0.000
  Li4821  Li1+  0.650  0.106  0.019  0.000
  Li4822  Li1+  0.646  0.046  0.072  0.000
  Li4823  Li1+  0.648  0.062  0.089  0.000
  Li4829  Li1+  0.648  0.198  0.081  0.000
  Li4834  Li1+  0.656  0.067  0.154  0.000
  Li4839  Li1+  0.694  0.152  0.181  0.000
  Li4841  Li1+  0.702  0.075  0.115  0.000
  Li4844  Li1+  0.750  0.062  0.088  0.000
  Li4846  Li1+  0.750  0.079  0.014  0.000
  Li4850  Li1+  0.748  0.037  0.015  0.000
  Li4855  Li1+  0.748  0.181  0.079  0.000
  Li4865  Li1+  0.779  -0.000  0.217  0.000
  Li4866  Li1+  0.623  -0.000  0.214  0.000
  Li4876  Li1+  0.617  0.042  0.253  0.000
  Li4888  Li1+  0.652  0.169  0.214  0.000
  Li4889  Li1+  0.650  0.031  0.211  0.000
  Li4903  Li1+  0.694  0.152  0.381  0.000
  Li4904  Li1+  0.698  0.110  0.251  0.000
  Li4910  Li1+  0.750  0.079  0.214  0.000
  Li4914  Li1+  0.748  0.037  0.215  0.000
  Li4915  Li1+  0.748  0.165  0.214  0.000
  Li4916  Li1+  0.758  0.021  0.349  0.000
  Li4919  Li1+  0.748  0.181  0.279  0.000
  Li4922  Li1+  0.746  0.073  0.351  0.000
  Li4923  Li1+  0.748  0.004  0.282  0.000
  Li4925  Li1+  0.750  0.117  0.218  0.000
  Li4940  Li1+  0.617  0.042  0.453  0.000
  Li4957  Li1+  0.648  0.198  0.481  0.000
  Li4962  Li1+  0.656  0.067  0.554  0.000
  Li4969  Li1+  0.702  0.075  0.515  0.000
  Li4972  Li1+  0.750  0.062  0.488  0.000
  Li4980  Li1+  0.758  0.021  0.549  0.000
  Li4982  Li1+  0.752  0.146  0.540  0.000
  Li4987  Li1+  0.748  0.004  0.482  0.000
  Li4989  Li1+  0.750  0.117  0.418  0.000
  Li5001  Li1+  0.606  0.142  0.715  0.000
  Li5002  Li1+  0.629  0.150  0.789  0.000
  Li5004  Li1+  0.617  0.042  0.653  0.000
  Li5006  Li1+  0.798  0.192  0.647  0.000
  Li5012  Li1+  0.646  0.156  0.750  0.000
  Li5013  Li1+  0.650  0.106  0.619  0.000
  Li5015  Li1+  0.648  0.062  0.689  0.000
  Li5017  Li1+  0.650  0.031  0.611  0.000
  Li5031  Li1+  0.694  0.152  0.781  0.000
  Li5033  Li1+  0.702  0.075  0.715  0.000
  Li5035  Li1+  0.729  0.146  0.707  0.000
  Li5038  Li1+  0.750  0.079  0.614  0.000
  Li5044  Li1+  0.758  0.021  0.749  0.000
  Li5050  Li1+  0.746  0.073  0.751  0.000
  Li5053  Li1+  0.750  0.117  0.618  0.000
  Li5055  Li1+  0.769  0.150  0.789  0.000
  Li5057  Li1+  0.779  -0.000  0.817  0.000
  Li5060  Li1+  0.600  0.023  0.982  0.000
  Li5067  Li1+  0.798  0.025  0.850  0.000
  Li5068  Li1+  0.617  0.042  0.853  0.000
  Li5074  Li1+  0.648  0.008  0.882  0.000
  Li5077  Li1+  0.650  0.106  0.819  0.000
  Li5097  Li1+  0.702  0.075  0.915  0.000
  Li5104  Li1+  0.748  0.150  0.956  0.000
  Li5107  Li1+  0.748  0.165  0.814  0.000
  Li5108  Li1+  0.758  0.021  0.949  0.000
  Li5111  Li1+  0.748  0.181  0.879  0.000
  Li5114  Li1+  0.746  0.073  0.951  0.000
  Li5116  Li1+  0.760  0.054  0.982  0.000
  Li5120  Li1+  0.781  0.040  0.851  0.000
  Li5121  Li1+  0.779  0.200  0.017  0.000
  Li5124  Li1+  0.600  0.223  0.182  0.000
  Li5131  Li1+  0.798  0.225  0.050  0.000
  Li5132  Li1+  0.617  0.242  0.053  0.000
  Li5159  Li1+  0.694  0.352  0.181  0.000
  Li5161  Li1+  0.702  0.275  0.115  0.000
  Li5166  Li1+  0.750  0.279  0.014  0.000
  Li5168  Li1+  0.748  0.350  0.156  0.000
  Li5171  Li1+  0.748  0.365  0.014  0.000
  Li5172  Li1+  0.758  0.221  0.149  0.000
  Li5175  Li1+  0.748  0.381  0.079  0.000
  Li5178  Li1+  0.746  0.273  0.151  0.000
  Li5179  Li1+  0.748  0.204  0.082  0.000
  Li5181  Li1+  0.750  0.317  0.018  0.000
  Li5184  Li1+  0.781  0.240  0.051  0.000
  Li5188  Li1+  0.600  0.223  0.382  0.000
  Li5193  Li1+  0.606  0.342  0.315  0.000
  Li5196  Li1+  0.617  0.242  0.253  0.000
  Li5198  Li1+  0.798  0.392  0.247  0.000
  Li5205  Li1+  0.650  0.306  0.219  0.000
  Li5213  Li1+  0.648  0.398  0.281  0.000
  Li5214  Li1+  0.656  0.242  0.314  0.000
  Li5224  Li1+  0.698  0.310  0.251  0.000
  Li5225  Li1+  0.702  0.275  0.315  0.000
  Li5227  Li1+  0.729  0.346  0.307  0.000
  Li5236  Li1+  0.758  0.221  0.349  0.000
  Li5239  Li1+  0.748  0.381  0.279  0.000
  Li5243  Li1+  0.748  0.204  0.282  0.000
  Li5244  Li1+  0.760  0.254  0.382  0.000
  Li5246  Li1+  0.748  0.340  0.346  0.000
  Li5249  Li1+  0.779  0.200  0.417  0.000
  Li5250  Li1+  0.623  0.200  0.414  0.000
  Li5252  Li1+  0.600  0.223  0.582  0.000
  Li5257  Li1+  0.606  0.342  0.515  0.000
  Li5260  Li1+  0.617  0.242  0.453  0.000
  Li5266  Li1+  0.648  0.208  0.482  0.000
  Li5282  Li1+  0.656  0.267  0.554  0.000
  Li5289  Li1+  0.702  0.275  0.515  0.000
  Li5294  Li1+  0.750  0.279  0.414  0.000
  Li5297  Li1+  0.750  0.352  0.403  0.000
  Li5299  Li1+  0.748  0.365  0.414  0.000
  Li5300  Li1+  0.758  0.221  0.549  0.000
  Li5305  Li1+  0.752  0.244  0.469  0.000
  Li5306  Li1+  0.746  0.273  0.551  0.000
  Li5307  Li1+  0.748  0.204  0.482  0.000
  Li5309  Li1+  0.750  0.317  0.418  0.000
  Li5312  Li1+  0.781  0.240  0.451  0.000
  Li5314  Li1+  0.623  0.200  0.614  0.000
  Li5316  Li1+  0.600  0.223  0.782  0.000
  Li5324  Li1+  0.617  0.242  0.653  0.000
  Li5333  Li1+  0.650  0.306  0.619  0.000
  Li5336  Li1+  0.652  0.369  0.614  0.000
  Li5339  Li1+  0.648  0.352  0.601  0.000
  Li5341  Li1+  0.648  0.398  0.681  0.000
  Li5346  Li1+  0.656  0.267  0.754  0.000
  Li5349  Li1+  0.698  0.300  0.647  0.000
  Li5351  Li1+  0.694  0.352  0.781  0.000
  Li5354  Li1+  0.750  0.254  0.771  0.000
  Li5362  Li1+  0.748  0.237  0.615  0.000
  Li5364  Li1+  0.758  0.221  0.749  0.000
  Li5367  Li1+  0.748  0.381  0.679  0.000
  Li5370  Li1+  0.746  0.273  0.751  0.000
  Li5374  Li1+  0.748  0.340  0.746  0.000
  Li5376  Li1+  0.781  0.240  0.651  0.000
  Li5378  Li1+  0.623  0.200  0.814  0.000
  Li5394  Li1+  0.648  0.208  0.882  0.000
  Li5397  Li1+  0.650  0.306  0.819  0.000
  Li5398  Li1+  0.646  0.246  0.872  0.000
  Li5399  Li1+  0.648  0.262  0.889  0.000
  Li5400  Li1+  0.652  0.369  0.814  0.000
  Li5405  Li1+  0.648  0.398  0.881  0.000
  Li5410  Li1+  0.656  0.267  0.954  0.000
  Li5415  Li1+  0.694  0.352  0.981  0.000
  Li5417  Li1+  0.702  0.275  0.915  0.000
  Li5420  Li1+  0.750  0.262  0.888  0.000
  Li5427  Li1+  0.748  0.365  0.814  0.000
  Li5428  Li1+  0.758  0.221  0.949  0.000
  Li5431  Li1+  0.748  0.381  0.879  0.000
  Li5434  Li1+  0.746  0.273  0.951  0.000
  Li5436  Li1+  0.760  0.254  0.982  0.000
  Li5440  Li1+  0.781  0.240  0.851  0.000
  Li5441  Li1+  0.779  0.400  0.017  0.000
  Li5444  Li1+  0.600  0.423  0.182  0.000
  Li5449  Li1+  0.606  0.542  0.115  0.000
  Li5451  Li1+  0.798  0.425  0.050  0.000
  Li5461  Li1+  0.650  0.506  0.019  0.000
  Li5464  Li1+  0.652  0.569  0.014  0.000
  Li5469  Li1+  0.648  0.598  0.081  0.000
  Li5474  Li1+  0.656  0.467  0.154  0.000
  Li5479  Li1+  0.694  0.552  0.181  0.000
  Li5480  Li1+  0.698  0.510  0.051  0.000
  Li5483  Li1+  0.729  0.546  0.107  0.000
  Li5488  Li1+  0.748  0.550  0.156  0.000
  Li5492  Li1+  0.758  0.421  0.149  0.000
  Li5498  Li1+  0.746  0.473  0.151  0.000
  Li5501  Li1+  0.750  0.517  0.018  0.000
  Li5504  Li1+  0.781  0.440  0.051  0.000
  Li5505  Li1+  0.779  0.400  0.217  0.000
  Li5506  Li1+  0.623  0.400  0.214  0.000
  Li5508  Li1+  0.600  0.423  0.382  0.000
  Li5533  Li1+  0.648  0.598  0.281  0.000
  Li5538  Li1+  0.656  0.467  0.354  0.000
  Li5543  Li1+  0.694  0.552  0.381  0.000
  Li5545  Li1+  0.702  0.475  0.315  0.000
  Li5547  Li1+  0.729  0.546  0.307  0.000
  Li5548  Li1+  0.750  0.462  0.288  0.000
  Li5556  Li1+  0.758  0.421  0.349  0.000
  Li5559  Li1+  0.748  0.581  0.279  0.000
  Li5563  Li1+  0.748  0.404  0.282  0.000
  Li5569  Li1+  0.779  0.400  0.417  0.000
  Li5577  Li1+  0.606  0.542  0.515  0.000
  Li5579  Li1+  0.798  0.425  0.450  0.000
  Li5580  Li1+  0.617  0.442  0.453  0.000
  Li5589  Li1+  0.650  0.506  0.419  0.000
  Li5592  Li1+  0.652  0.569  0.414  0.000
  Li5597  Li1+  0.648  0.598  0.481  0.000
  Li5608  Li1+  0.698  0.510  0.451  0.000
  Li5614  Li1+  0.750  0.479  0.414  0.000
  Li5619  Li1+  0.748  0.565  0.414  0.000
  Li5623  Li1+  0.748  0.581  0.479  0.000
  Li5632  Li1+  0.781  0.440  0.451  0.000
  Li5644  Li1+  0.617  0.442  0.653  0.000
  Li5649  Li1+  0.798  0.400  0.651  0.000
  Li5653  Li1+  0.650  0.506  0.619  0.000
  Li5656  Li1+  0.652  0.569  0.614  0.000
  Li5658  Li1+  0.652  0.456  0.632  0.000
  Li5666  Li1+  0.656  0.467  0.754  0.000
  Li5671  Li1+  0.694  0.552  0.781  0.000
  Li5675  Li1+  0.729  0.546  0.707  0.000
  Li5678  Li1+  0.750  0.479  0.614  0.000
  Li5682  Li1+  0.748  0.437  0.615  0.000
  Li5684  Li1+  0.758  0.421  0.749  0.000
  Li5687  Li1+  0.748  0.581  0.679  0.000
  Li5689  Li1+  0.752  0.444  0.669  0.000
  Li5693  Li1+  0.750  0.517  0.618  0.000
  Li5695  Li1+  0.769  0.550  0.789  0.000
  Li5697  Li1+  0.779  0.400  0.817  0.000
  Li5698  Li1+  0.623  0.400  0.814  0.000
  Li5699  Li1+  0.604  0.592  0.950  0.000
  Li5705  Li1+  0.606  0.542  0.915  0.000
  Li5707  Li1+  0.798  0.425  0.850  0.000
  Li5714  Li1+  0.648  0.408  0.882  0.000
  Li5720  Li1+  0.652  0.569  0.814  0.000
  Li5722  Li1+  0.652  0.456  0.832  0.000
  Li5725  Li1+  0.648  0.598  0.881  0.000
  Li5730  Li1+  0.656  0.467  0.954  0.000
  Li5735  Li1+  0.694  0.552  0.981  0.000
  Li5736  Li1+  0.698  0.510  0.851  0.000
  Li5737  Li1+  0.702  0.475  0.915  0.000
  Li5742  Li1+  0.750  0.479  0.814  0.000
  Li5748  Li1+  0.758  0.421  0.949  0.000
  Li5757  Li1+  0.750  0.517  0.818  0.000
  Li5759  Li1+  0.769  0.550  0.989  0.000
  Li5760  Li1+  0.781  0.440  0.851  0.000
  Li5762  Li1+  0.623  0.600  0.014  0.000
  Li5764  Li1+  0.600  0.623  0.182  0.000
  Li5771  Li1+  0.798  0.625  0.050  0.000
  Li5772  Li1+  0.617  0.642  0.053  0.000
  Li5781  Li1+  0.650  0.706  0.019  0.000
  Li5789  Li1+  0.648  0.798  0.081  0.000
  Li5799  Li1+  0.694  0.752  0.181  0.000
  Li5801  Li1+  0.702  0.675  0.115  0.000
  Li5806  Li1+  0.750  0.679  0.014  0.000
  Li5812  Li1+  0.758  0.621  0.149  0.000
  Li5820  Li1+  0.760  0.654  0.182  0.000
  Li5821  Li1+  0.750  0.717  0.018  0.000
  Li5824  Li1+  0.781  0.640  0.051  0.000
  Li5825  Li1+  0.779  0.600  0.217  0.000
  Li5826  Li1+  0.623  0.600  0.214  0.000
  Li5833  Li1+  0.606  0.742  0.315  0.000
  Li5840  Li1+  0.798  0.698  0.386  0.000
  Li5842  Li1+  0.648  0.608  0.282  0.000
  Li5846  Li1+  0.646  0.646  0.272  0.000
  Li5849  Li1+  0.650  0.631  0.211  0.000
  Li5855  Li1+  0.650  0.710  0.221  0.000
  Li5858  Li1+  0.656  0.667  0.354  0.000
  Li5863  Li1+  0.694  0.752  0.381  0.000
  Li5864  Li1+  0.698  0.710  0.251  0.000
  Li5875  Li1+  0.748  0.765  0.214  0.000
  Li5876  Li1+  0.758  0.621  0.349  0.000
  Li5879  Li1+  0.748  0.781  0.279  0.000
  Li5882  Li1+  0.746  0.673  0.351  0.000
  Li5885  Li1+  0.750  0.717  0.218  0.000
  Li5891  Li1+  0.604  0.792  0.550  0.000
  Li5897  Li1+  0.606  0.742  0.515  0.000
  Li5899  Li1+  0.798  0.625  0.450  0.000
  Li5900  Li1+  0.617  0.642  0.453  0.000
  Li5906  Li1+  0.648  0.608  0.482  0.000
  Li5912  Li1+  0.652  0.769  0.414  0.000
  Li5922  Li1+  0.656  0.667  0.554  0.000
  Li5927  Li1+  0.694  0.752  0.581  0.000
  Li5928  Li1+  0.698  0.710  0.451  0.000
  Li5929  Li1+  0.702  0.675  0.515  0.000
  Li5932  Li1+  0.750  0.662  0.488  0.000
  Li5934  Li1+  0.750  0.679  0.414  0.000
  Li5940  Li1+  0.758  0.621  0.549  0.000
  Li5943  Li1+  0.748  0.781  0.479  0.000
  Li5946  Li1+  0.746  0.673  0.551  0.000
  Li5947  Li1+  0.748  0.604  0.482  0.000
  Li5952  Li1+  0.781  0.640  0.451  0.000
  Li5956  Li1+  0.600  0.623  0.782  0.000
  Li5957  Li1+  0.648  0.642  0.728  0.000
  Li5963  Li1+  0.798  0.625  0.650  0.000
  Li5966  Li1+  0.798  0.792  0.647  0.000
  Li5973  Li1+  0.650  0.706  0.619  0.000
  Li5981  Li1+  0.648  0.798  0.681  0.000
  Li5985  Li1+  0.696  0.667  0.650  0.000
  Li5991  Li1+  0.694  0.752  0.781  0.000
  Li5993  Li1+  0.702  0.675  0.715  0.000
  Li5995  Li1+  0.729  0.746  0.707  0.000
  Li5998  Li1+  0.750  0.679  0.614  0.000
  Li6004  Li1+  0.758  0.621  0.749  0.000
  Li6007  Li1+  0.748  0.781  0.679  0.000
  Li6009  Li1+  0.752  0.644  0.669  0.000
  Li6010  Li1+  0.746  0.673  0.751  0.000
  Li6011  Li1+  0.748  0.604  0.682  0.000
  Li6013  Li1+  0.750  0.717  0.618  0.000
  Li6014  Li1+  0.748  0.740  0.746  0.000
  Li6016  Li1+  0.781  0.640  0.651  0.000
  Li6018  Li1+  0.623  0.600  0.814  0.000
  Li6020  Li1+  0.600  0.623  0.982  0.000
  Li6025  Li1+  0.606  0.742  0.915  0.000
  Li6031  Li1+  0.642  0.654  0.983  0.000
  Li6034  Li1+  0.648  0.608  0.882  0.000
  Li6037  Li1+  0.650  0.706  0.819  0.000
  Li6041  Li1+  0.650  0.631  0.811  0.000
  Li6042  Li1+  0.652  0.656  0.832  0.000
  Li6050  Li1+  0.656  0.667  0.954  0.000
  Li6055  Li1+  0.694  0.752  0.981  0.000
  Li6057  Li1+  0.702  0.675  0.915  0.000
  Li6062  Li1+  0.750  0.679  0.814  0.000
  Li6068  Li1+  0.758  0.621  0.949  0.000
  Li6075  Li1+  0.748  0.604  0.882  0.000
  Li6080  Li1+  0.781  0.640  0.851  0.000
  Li6081  Li1+  0.779  0.800  0.017  0.000
  Li6089  Li1+  0.606  0.942  0.115  0.000
  Li6092  Li1+  0.617  0.842  0.053  0.000
  Li6101  Li1+  0.650  0.906  0.019  0.000
  Li6104  Li1+  0.652  0.969  0.014  0.000
  Li6114  Li1+  0.656  0.867  0.154  0.000
  Li6117  Li1+  0.698  0.900  0.047  0.000
  Li6119  Li1+  0.694  0.952  0.181  0.000
  Li6121  Li1+  0.702  0.875  0.115  0.000
  Li6123  Li1+  0.729  0.946  0.107  0.000
  Li6128  Li1+  0.748  0.950  0.156  0.000
  Li6132  Li1+  0.758  0.821  0.149  0.000
  Li6140  Li1+  0.760  0.854  0.182  0.000
  Li6141  Li1+  0.750  0.917  0.018  0.000
  Li6144  Li1+  0.781  0.840  0.051  0.000
  Li6155  Li1+  0.798  0.825  0.250  0.000
  Li6156  Li1+  0.617  0.842  0.253  0.000
  Li6159  Li1+  0.642  0.854  0.383  0.000
  Li6161  Li1+  0.798  0.800  0.251  0.000
  Li6165  Li1+  0.650  0.906  0.219  0.000
  Li6173  Li1+  0.648  0.998  0.281  0.000
  Li6178  Li1+  0.656  0.867  0.354  0.000
  Li6185  Li1+  0.702  0.875  0.315  0.000
  Li6199  Li1+  0.748  0.981  0.279  0.000
  Li6205  Li1+  0.750  0.917  0.218  0.000
  Li6212  Li1+  0.600  0.823  0.582  0.000
  Li6220  Li1+  0.617  0.842  0.453  0.000
  Li6230  Li1+  0.646  0.846  0.472  0.000
  Li6236  Li1+  0.650  0.950  0.556  0.000
  Li6237  Li1+  0.648  0.998  0.481  0.000
  Li6247  Li1+  0.694  0.952  0.581  0.000
  Li6248  Li1+  0.698  0.910  0.451  0.000
  Li6249  Li1+  0.702  0.875  0.515  0.000
  Li6254  Li1+  0.750  0.879  0.414  0.000
  Li6259  Li1+  0.748  0.965  0.414  0.000
  Li6263  Li1+  0.748  0.981  0.479  0.000
  Li6265  Li1+  0.752  0.844  0.469  0.000
  Li6267  Li1+  0.748  0.804  0.482  0.000
  Li6273  Li1+  0.779  0.800  0.617  0.000
  Li6284  Li1+  0.617  0.842  0.653  0.000
  Li6290  Li1+  0.648  0.808  0.682  0.000
  Li6296  Li1+  0.652  0.969  0.614  0.000
  Li6311  Li1+  0.694  0.952  0.781  0.000
  Li6313  Li1+  0.702  0.875  0.715  0.000
  Li6316  Li1+  0.750  0.862  0.688  0.000
  Li6318  Li1+  0.750  0.879  0.614  0.000
  Li6322  Li1+  0.748  0.837  0.615  0.000
  Li6327  Li1+  0.748  0.981  0.679  0.000
  Li6336  Li1+  0.781  0.840  0.651  0.000
  Li6338  Li1+  0.623  0.800  0.814  0.000
  Li6344  Li1+  0.650  0.950  0.849  0.000
  Li6345  Li1+  0.606  0.942  0.915  0.000
  Li6348  Li1+  0.617  0.842  0.853  0.000
  Li6353  Li1+  0.798  0.800  0.851  0.000
  Li6359  Li1+  0.648  0.862  0.889  0.000
  Li6365  Li1+  0.648  0.998  0.881  0.000
  Li6370  Li1+  0.656  0.867  0.954  0.000
  Li6375  Li1+  0.694  0.952  0.981  0.000
  Li6376  Li1+  0.698  0.910  0.851  0.000
  Li6377  Li1+  0.702  0.875  0.915  0.000
  Li6379  Li1+  0.729  0.946  0.907  0.000
  Li6382  Li1+  0.750  0.879  0.814  0.000
  Li6388  Li1+  0.758  0.821  0.949  0.000
  Li6394  Li1+  0.746  0.873  0.951  0.000
  Li6397  Li1+  0.750  0.917  0.818  0.000
  Li6398  Li1+  0.748  0.940  0.946  0.000
  Li6401  Li1+  0.979  -0.000  0.017  0.000
  Li6404  Li1+  0.800  0.023  0.182  0.000
  Li6423  Li1+  0.848  0.062  0.089  0.000
  Li6424  Li1+  0.852  0.169  0.014  0.000
  Li6426  Li1+  0.852  0.056  0.032  0.000
  Li6429  Li1+  0.848  0.198  0.081  0.000
  Li6434  Li1+  0.856  0.067  0.154  0.000
  Li6441  Li1+  0.902  0.075  0.115  0.000
  Li6443  Li1+  0.929  0.146  0.107  0.000
  Li6444  Li1+  0.950  0.062  0.088  0.000
  Li6446  Li1+  0.950  0.079  0.014  0.000
  Li6447  Li1+  0.948  0.142  0.093  0.000
  Li6448  Li1+  0.948  0.150  0.156  0.000
  Li6457  Li1+  0.952  0.044  0.069  0.000
  Li6460  Li1+  0.960  0.054  0.182  0.000
  Li6461  Li1+  0.950  0.117  0.018  0.000
  Li6464  Li1+  0.981  0.040  0.051  0.000
  Li6466  Li1+  0.823  -0.000  0.214  0.000
  Li6468  Li1+  0.800  0.023  0.382  0.000
  Li6473  Li1+  0.806  0.142  0.315  0.000
  Li6475  Li1+  0.998  0.025  0.250  0.000
  Li6485  Li1+  0.850  0.106  0.219  0.000
  Li6487  Li1+  0.848  0.062  0.289  0.000
  Li6490  Li1+  0.852  0.056  0.232  0.000
  Li6491  Li1+  0.848  0.152  0.201  0.000
  Li6493  Li1+  0.848  0.198  0.281  0.000
  Li6498  Li1+  0.856  0.067  0.354  0.000
  Li6503  Li1+  0.894  0.152  0.381  0.000
  Li6510  Li1+  0.950  0.079  0.214  0.000
  Li6516  Li1+  0.958  0.021  0.349  0.000
  Li6519  Li1+  0.948  0.181  0.279  0.000
  Li6522  Li1+  0.946  0.073  0.351  0.000
  Li6523  Li1+  0.948  0.004  0.282  0.000
  Li6525  Li1+  0.950  0.117  0.218  0.000
  Li6530  Li1+  0.823  -0.000  0.414  0.000
  Li6532  Li1+  0.800  0.023  0.582  0.000
  Li6538  Li1+  0.829  0.150  0.589  0.000
  Li6539  Li1+  0.998  0.025  0.450  0.000
  Li6540  Li1+  0.817  0.042  0.453  0.000
  Li6542  Li1+  0.998  0.192  0.447  0.000
  Li6549  Li1+  0.850  0.106  0.419  0.000
  Li6552  Li1+  0.852  0.169  0.414  0.000
  Li6557  Li1+  0.848  0.198  0.481  0.000
  Li6558  Li1+  0.856  0.042  0.514  0.000
  Li6564  Li1+  0.894  0.100  0.549  0.000
  Li6565  Li1+  0.898  0.100  0.447  0.000
  Li6567  Li1+  0.894  0.152  0.581  0.000
  Li6568  Li1+  0.898  0.110  0.451  0.000
  Li6569  Li1+  0.902  0.075  0.515  0.000
  Li6586  Li1+  0.946  0.073  0.551  0.000
  Li6589  Li1+  0.950  0.117  0.418  0.000
  Li6592  Li1+  0.981  0.040  0.451  0.000
  Li6593  Li1+  0.979  -0.000  0.617  0.000
  Li6596  Li1+  0.800  0.023  0.782  0.000
  Li6601  Li1+  0.806  0.142  0.715  0.000
  Li6604  Li1+  0.817  0.042  0.653  0.000
  Li6607  Li1+  0.842  0.054  0.783  0.000
  Li6612  Li1+  0.846  0.156  0.750  0.000
  Li6614  Li1+  0.846  0.046  0.672  0.000
  Li6615  Li1+  0.848  0.062  0.689  0.000
  Li6616  Li1+  0.852  0.169  0.614  0.000
  Li6621  Li1+  0.848  0.198  0.681  0.000
  Li6633  Li1+  0.902  0.075  0.715  0.000
  Li6638  Li1+  0.950  0.079  0.614  0.000
  Li6647  Li1+  0.948  0.181  0.679  0.000
  Li6652  Li1+  0.960  0.054  0.782  0.000
  Li6653  Li1+  0.950  0.117  0.618  0.000
  Li6665  Li1+  0.806  0.142  0.915  0.000
  Li6674  Li1+  0.848  0.008  0.882  0.000
  Li6681  Li1+  0.850  0.031  0.811  0.000
  Li6685  Li1+  0.848  0.198  0.881  0.000
  Li6690  Li1+  0.856  0.067  0.954  0.000
  Li6695  Li1+  0.894  0.152  0.981  0.000
  Li6697  Li1+  0.902  0.075  0.915  0.000
  Li6700  Li1+  0.950  0.062  0.888  0.000
  Li6708  Li1+  0.958  0.021  0.949  0.000
  Li6711  Li1+  0.948  0.181  0.879  0.000
  Li6713  Li1+  0.952  0.044  0.869  0.000
  Li6714  Li1+  0.946  0.073  0.951  0.000
  Li6715  Li1+  0.948  0.004  0.882  0.000
  Li6717  Li1+  0.950  0.117  0.818  0.000
  Li6720  Li1+  0.981  0.040  0.851  0.000
  Li6721  Li1+  0.979  0.200  0.017  0.000
  Li6722  Li1+  0.823  0.200  0.014  0.000
  Li6729  Li1+  0.806  0.342  0.115  0.000
  Li6730  Li1+  0.829  0.350  0.189  0.000
  Li6732  Li1+  0.817  0.242  0.053  0.000
  Li6734  Li1+  0.998  0.392  0.047  0.000
  Li6744  Li1+  0.852  0.369  0.014  0.000
  Li6749  Li1+  0.848  0.398  0.081  0.000
  Li6754  Li1+  0.856  0.267  0.154  0.000
  Li6759  Li1+  0.894  0.352  0.181  0.000
  Li6763  Li1+  0.929  0.346  0.107  0.000
  Li6766  Li1+  0.950  0.279  0.014  0.000
  Li6770  Li1+  0.948  0.238  0.015  0.000
  Li6772  Li1+  0.958  0.221  0.149  0.000
  Li6775  Li1+  0.948  0.381  0.079  0.000
  Li6778  Li1+  0.946  0.273  0.151  0.000
  Li6780  Li1+  0.960  0.254  0.182  0.000
  Li6781  Li1+  0.950  0.317  0.018  0.000
  Li6784  Li1+  0.981  0.240  0.051  0.000
  Li6785  Li1+  0.979  0.200  0.217  0.000
  Li6788  Li1+  0.800  0.223  0.382  0.000
  Li6793  Li1+  0.806  0.342  0.315  0.000
  Li6805  Li1+  0.850  0.306  0.219  0.000
  Li6823  Li1+  0.894  0.352  0.381  0.000
  Li6828  Li1+  0.950  0.262  0.288  0.000
  Li6842  Li1+  0.946  0.273  0.351  0.000
  Li6843  Li1+  0.948  0.204  0.282  0.000
  Li6845  Li1+  0.950  0.317  0.218  0.000
  Li6849  Li1+  0.979  0.200  0.417  0.000
  Li6850  Li1+  0.823  0.200  0.414  0.000
  Li6863  Li1+  0.842  0.254  0.583  0.000
  Li6869  Li1+  0.850  0.306  0.419  0.000
  Li6872  Li1+  0.852  0.369  0.414  0.000
  Li6881  Li1+  0.896  0.267  0.450  0.000
  Li6887  Li1+  0.894  0.352  0.581  0.000
  Li6894  Li1+  0.950  0.279  0.414  0.000
  Li6900  Li1+  0.958  0.221  0.549  0.000
  Li6907  Li1+  0.948  0.204  0.482  0.000
  Li6909  Li1+  0.950  0.317  0.418  0.000
  Li6910  Li1+  0.948  0.340  0.546  0.000
  Li6913  Li1+  0.979  0.200  0.617  0.000
  Li6930  Li1+  0.848  0.208  0.682  0.000
  Li6936  Li1+  0.852  0.369  0.614  0.000
  Li6941  Li1+  0.848  0.398  0.681  0.000
  Li6951  Li1+  0.894  0.352  0.781  0.000
  Li6953  Li1+  0.902  0.275  0.715  0.000
  Li6955  Li1+  0.929  0.346  0.707  0.000
  Li6956  Li1+  0.950  0.262  0.688  0.000
  Li6963  Li1+  0.948  0.365  0.614  0.000
  Li6973  Li1+  0.950  0.317  0.618  0.000
  Li6980  Li1+  0.800  0.223  0.982  0.000
  Li6985  Li1+  0.806  0.342  0.915  0.000
  Li6987  Li1+  0.998  0.225  0.850  0.000
  Li6990  Li1+  0.998  0.392  0.847  0.000
  Li6995  Li1+  0.850  0.340  0.894  0.000
  Li7000  Li1+  0.852  0.369  0.814  0.000
  Li7005  Li1+  0.848  0.398  0.881  0.000
  Li7007  Li1+  0.850  0.310  0.821  0.000
  Li7017  Li1+  0.902  0.275  0.915  0.000
  Li7019  Li1+  0.929  0.346  0.907  0.000
  Li7022  Li1+  0.950  0.279  0.814  0.000
  Li7028  Li1+  0.958  0.221  0.949  0.000
  Li7031  Li1+  0.948  0.381  0.879  0.000
  Li7033  Li1+  0.952  0.244  0.869  0.000
  Li7035  Li1+  0.948  0.204  0.882  0.000
  Li7037  Li1+  0.950  0.317  0.818  0.000
  Li7040  Li1+  0.981  0.240  0.851  0.000
  Li7051  Li1+  0.998  0.425  0.050  0.000
  Li7057  Li1+  0.998  0.400  0.051  0.000
  Li7058  Li1+  0.848  0.408  0.082  0.000
  Li7061  Li1+  0.850  0.506  0.019  0.000
  Li7065  Li1+  0.850  0.431  0.011  0.000
  Li7066  Li1+  0.852  0.456  0.032  0.000
  Li7069  Li1+  0.848  0.598  0.081  0.000
  Li7079  Li1+  0.894  0.552  0.181  0.000
  Li7091  Li1+  0.948  0.565  0.014  0.000
  Li7092  Li1+  0.958  0.421  0.149  0.000
  Li7101  Li1+  0.950  0.517  0.018  0.000
  Li7106  Li1+  0.823  0.400  0.214  0.000
  Li7125  Li1+  0.850  0.506  0.219  0.000
  Li7138  Li1+  0.856  0.467  0.354  0.000
  Li7143  Li1+  0.894  0.552  0.381  0.000
  Li7150  Li1+  0.950  0.479  0.214  0.000
  Li7155  Li1+  0.948  0.565  0.214  0.000
  Li7162  Li1+  0.946  0.473  0.351  0.000
  Li7165  Li1+  0.950  0.517  0.218  0.000
  Li7169  Li1+  0.979  0.400  0.417  0.000
  Li7170  Li1+  0.823  0.400  0.414  0.000
  Li7179  Li1+  0.998  0.425  0.450  0.000
  Li7180  Li1+  0.817  0.442  0.453  0.000
  Li7182  Li1+  0.998  0.592  0.447  0.000
  Li7197  Li1+  0.848  0.598  0.481  0.000
  Li7198  Li1+  0.856  0.442  0.514  0.000
  Li7202  Li1+  0.856  0.467  0.554  0.000
  Li7209  Li1+  0.902  0.475  0.515  0.000
  Li7212  Li1+  0.950  0.462  0.488  0.000
  Li7214  Li1+  0.950  0.479  0.414  0.000
  Li7220  Li1+  0.958  0.421  0.549  0.000
  Li7223  Li1+  0.948  0.581  0.479  0.000
  Li7226  Li1+  0.946  0.473  0.551  0.000
  Li7229  Li1+  0.950  0.517  0.418  0.000
  Li7232  Li1+  0.981  0.440  0.451  0.000
  Li7233  Li1+  0.979  0.400  0.617  0.000
  Li7241  Li1+  0.806  0.542  0.715  0.000
  Li7253  Li1+  0.850  0.506  0.619  0.000
  Li7258  Li1+  0.852  0.456  0.632  0.000
  Li7261  Li1+  0.848  0.598  0.681  0.000
  Li7262  Li1+  0.856  0.442  0.714  0.000
  Li7266  Li1+  0.856  0.467  0.754  0.000
  Li7271  Li1+  0.894  0.552  0.781  0.000
  Li7278  Li1+  0.950  0.479  0.614  0.000
  Li7283  Li1+  0.948  0.565  0.614  0.000
  Li7284  Li1+  0.958  0.421  0.749  0.000
  Li7287  Li1+  0.948  0.581  0.679  0.000
  Li7290  Li1+  0.946  0.473  0.751  0.000
  Li7291  Li1+  0.948  0.404  0.682  0.000
  Li7292  Li1+  0.960  0.454  0.782  0.000
  Li7293  Li1+  0.950  0.517  0.618  0.000
  Li7297  Li1+  0.979  0.400  0.817  0.000
  Li7305  Li1+  0.806  0.542  0.915  0.000
  Li7310  Li1+  0.998  0.592  0.847  0.000
  Li7313  Li1+  0.998  0.400  0.851  0.000
  Li7317  Li1+  0.850  0.506  0.819  0.000
  Li7320  Li1+  0.852  0.569  0.814  0.000
  Li7325  Li1+  0.848  0.598  0.881  0.000
  Li7335  Li1+  0.894  0.552  0.981  0.000
  Li7337  Li1+  0.902  0.475  0.915  0.000
  Li7339  Li1+  0.929  0.546  0.907  0.000
  Li7340  Li1+  0.950  0.462  0.888  0.000
  Li7346  Li1+  0.948  0.437  0.815  0.000
  Li7351  Li1+  0.948  0.581  0.879  0.000
  Li7353  Li1+  0.952  0.444  0.869  0.000
  Li7354  Li1+  0.946  0.473  0.951  0.000
  Li7355  Li1+  0.948  0.404  0.882  0.000
  Li7357  Li1+  0.950  0.517  0.818  0.000
  Li7361  Li1+  0.979  0.600  0.017  0.000
  Li7362  Li1+  0.823  0.600  0.014  0.000
  Li7369  Li1+  0.806  0.742  0.115  0.000
  Li7372  Li1+  0.817  0.642  0.053  0.000
  Li7378  Li1+  0.848  0.608  0.082  0.000
  Li7381  Li1+  0.850  0.706  0.019  0.000
  Li7383  Li1+  0.848  0.662  0.089  0.000
  Li7384  Li1+  0.852  0.769  0.014  0.000
  Li7389  Li1+  0.848  0.798  0.081  0.000
  Li7394  Li1+  0.856  0.667  0.154  0.000
  Li7400  Li1+  0.898  0.710  0.051  0.000
  Li7401  Li1+  0.902  0.675  0.115  0.000
  Li7404  Li1+  0.950  0.662  0.088  0.000
  Li7406  Li1+  0.950  0.679  0.014  0.000
  Li7411  Li1+  0.948  0.765  0.014  0.000
  Li7412  Li1+  0.958  0.621  0.149  0.000
  Li7415  Li1+  0.948  0.781  0.079  0.000
  Li7420  Li1+  0.960  0.654  0.182  0.000
  Li7421  Li1+  0.950  0.717  0.018  0.000
  Li7426  Li1+  0.823  0.600  0.214  0.000
  Li7428  Li1+  0.800  0.623  0.382  0.000
  Li7436  Li1+  0.817  0.642  0.253  0.000
  Li7447  Li1+  0.848  0.662  0.289  0.000
  Li7455  Li1+  0.850  0.710  0.221  0.000
  Li7458  Li1+  0.856  0.667  0.354  0.000
  Li7463  Li1+  0.894  0.752  0.381  0.000
  Li7467  Li1+  0.929  0.746  0.307  0.000
  Li7468  Li1+  0.950  0.662  0.288  0.000
  Li7470  Li1+  0.950  0.679  0.214  0.000
  Li7474  Li1+  0.948  0.637  0.215  0.000
  Li7475  Li1+  0.948  0.765  0.214  0.000
  Li7476  Li1+  0.958  0.621  0.349  0.000
  Li7485  Li1+  0.950  0.717  0.218  0.000
  Li7488  Li1+  0.981  0.640  0.251  0.000
  Li7489  Li1+  0.979  0.600  0.417  0.000
  Li7509  Li1+  0.850  0.706  0.419  0.000
  Li7517  Li1+  0.848  0.798  0.481  0.000
  Li7521  Li1+  0.896  0.667  0.450  0.000
  Li7522  Li1+  0.856  0.667  0.554  0.000
  Li7527  Li1+  0.894  0.752  0.581  0.000
  Li7529  Li1+  0.902  0.675  0.515  0.000
  Li7534  Li1+  0.950  0.679  0.414  0.000
  Li7539  Li1+  0.948  0.765  0.414  0.000
  Li7543  Li1+  0.948  0.781  0.479  0.000
  Li7547  Li1+  0.948  0.604  0.482  0.000
  Li7548  Li1+  0.960  0.654  0.582  0.000
  Li7549  Li1+  0.950  0.717  0.418  0.000
  Li7551  Li1+  0.969  0.750  0.589  0.000
  Li7553  Li1+  0.979  0.600  0.617  0.000
  Li7556  Li1+  0.800  0.623  0.782  0.000
  Li7561  Li1+  0.806  0.742  0.715  0.000
  Li7562  Li1+  0.829  0.750  0.789  0.000
  Li7563  Li1+  0.998  0.625  0.650  0.000
  Li7570  Li1+  0.848  0.608  0.682  0.000
  Li7573  Li1+  0.850  0.706  0.619  0.000
  Li7576  Li1+  0.852  0.769  0.614  0.000
  Li7577  Li1+  0.850  0.631  0.611  0.000
  Li7581  Li1+  0.848  0.798  0.681  0.000
  Li7591  Li1+  0.894  0.752  0.781  0.000
  Li7592  Li1+  0.898  0.710  0.651  0.000
  Li7593  Li1+  0.902  0.675  0.715  0.000
  Li7607  Li1+  0.948  0.781  0.679  0.000
  Li7610  Li1+  0.946  0.673  0.751  0.000
  Li7616  Li1+  0.981  0.640  0.651  0.000
  Li7617  Li1+  0.979  0.600  0.817  0.000
  Li7618  Li1+  0.823  0.600  0.814  0.000
  Li7625  Li1+  0.806  0.742  0.915  0.000
  Li7626  Li1+  0.829  0.750  0.989  0.000
  Li7640  Li1+  0.852  0.769  0.814  0.000
  Li7643  Li1+  0.848  0.752  0.801  0.000
  Li7645  Li1+  0.848  0.798  0.881  0.000
  Li7655  Li1+  0.894  0.752  0.981  0.000
  Li7660  Li1+  0.950  0.662  0.888  0.000
  Li7668  Li1+  0.958  0.621  0.949  0.000
  Li7671  Li1+  0.948  0.781  0.879  0.000
  Li7674  Li1+  0.946  0.673  0.951  0.000
  Li7677  Li1+  0.950  0.717  0.818  0.000
  Li7681  Li1+  0.979  0.800  0.017  0.000
  Li7682  Li1+  0.823  0.800  0.014  0.000
  Li7684  Li1+  0.800  0.823  0.182  0.000
  Li7689  Li1+  0.806  0.942  0.115  0.000
  Li7690  Li1+  0.829  0.950  0.189  0.000
  Li7701  Li1+  0.850  0.906  0.019  0.000
  Li7714  Li1+  0.856  0.867  0.154  0.000
  Li7719  Li1+  0.894  0.952  0.181  0.000
  Li7726  Li1+  0.950  0.879  0.014  0.000
  Li7728  Li1+  0.948  0.950  0.156  0.000
  Li7731  Li1+  0.948  0.965  0.014  0.000
  Li7732  Li1+  0.958  0.821  0.149  0.000
  Li7736  Li1+  0.948  0.850  0.026  0.000
  Li7738  Li1+  0.946  0.873  0.151  0.000
  Li7739  Li1+  0.948  0.804  0.082  0.000
  Li7740  Li1+  0.960  0.854  0.182  0.000
  Li7741  Li1+  0.950  0.917  0.018  0.000
  Li7745  Li1+  0.979  0.800  0.217  0.000
  Li7748  Li1+  0.800  0.823  0.382  0.000
  Li7753  Li1+  0.806  0.942  0.315  0.000
  Li7754  Li1+  0.829  0.950  0.389  0.000
  Li7765  Li1+  0.850  0.906  0.219  0.000
  Li7766  Li1+  0.846  0.846  0.272  0.000
  Li7767  Li1+  0.848  0.862  0.289  0.000
  Li7785  Li1+  0.902  0.875  0.315  0.000
  Li7786  Li1+  0.950  0.854  0.371  0.000
  Li7788  Li1+  0.950  0.862  0.288  0.000
  Li7790  Li1+  0.950  0.879  0.214  0.000
  Li7795  Li1+  0.948  0.965  0.214  0.000
  Li7799  Li1+  0.948  0.981  0.279  0.000
  Li7800  Li1+  0.948  0.850  0.226  0.000
  Li7801  Li1+  0.952  0.844  0.269  0.000
  Li7803  Li1+  0.948  0.804  0.282  0.000
  Li7805  Li1+  0.950  0.917  0.218  0.000
  Li7808  Li1+  0.981  0.840  0.251  0.000
  Li7809  Li1+  0.979  0.800  0.417  0.000
  Li7812  Li1+  0.800  0.823  0.582  0.000
  Li7820  Li1+  0.817  0.842  0.453  0.000
  Li7832  Li1+  0.852  0.969  0.414  0.000
  Li7833  Li1+  0.850  0.831  0.411  0.000
  Li7837  Li1+  0.848  0.998  0.481  0.000
  Li7838  Li1+  0.856  0.842  0.514  0.000
  Li7849  Li1+  0.902  0.875  0.515  0.000
  Li7856  Li1+  0.948  0.950  0.556  0.000
  Li7859  Li1+  0.948  0.965  0.414  0.000
  Li7867  Li1+  0.948  0.804  0.482  0.000
  Li7869  Li1+  0.950  0.917  0.418  0.000
  Li7872  Li1+  0.981  0.840  0.451  0.000
  Li7873  Li1+  0.979  0.800  0.617  0.000
  Li7883  Li1+  0.998  0.825  0.650  0.000
  Li7890  Li1+  0.848  0.808  0.682  0.000
  Li7893  Li1+  0.850  0.906  0.619  0.000
  Li7894  Li1+  0.846  0.846  0.672  0.000
  Li7895  Li1+  0.848  0.862  0.689  0.000
  Li7906  Li1+  0.856  0.867  0.754  0.000
  Li7911  Li1+  0.894  0.952  0.781  0.000
  Li7913  Li1+  0.902  0.875  0.715  0.000
  Li7916  Li1+  0.950  0.862  0.688  0.000
  Li7918  Li1+  0.950  0.879  0.614  0.000
  Li7923  Li1+  0.948  0.965  0.614  0.000
  Li7927  Li1+  0.948  0.981  0.679  0.000
  Li7930  Li1+  0.946  0.873  0.751  0.000
  Li7933  Li1+  0.950  0.917  0.618  0.000
  Li7935  Li1+  0.969  0.950  0.789  0.000
  Li7937  Li1+  0.979  0.800  0.817  0.000
  Li7938  Li1+  0.823  0.800  0.814  0.000
  Li7940  Li1+  0.800  0.823  0.982  0.000
  Li7950  Li1+  0.998  0.992  0.847  0.000
  Li7954  Li1+  0.848  0.808  0.882  0.000
  Li7957  Li1+  0.850  0.906  0.819  0.000
  Li7958  Li1+  0.846  0.846  0.872  0.000
  Li7960  Li1+  0.852  0.969  0.814  0.000
  Li7970  Li1+  0.856  0.867  0.954  0.000
  Li7975  Li1+  0.894  0.952  0.981  0.000
  Li7995  Li1+  0.948  0.804  0.882  0.000
  Li7998  Li1+  0.948  0.940  0.946  0.000
  Li8000  Li1+  0.981  0.840  0.851  0.000
  Li3956  Li1+  0.558  0.421  0.349  0.000
  Li2821  Li1+  0.248  0.642  0.928  0.000
  Li6528  Li1+  0.981  0.040  0.251  0.000
  Li930  Li1+  0.056  0.467  0.954  0.000
  Li573  Li1+  0.150  0.317  0.618  0.000
  Li318  Li1+  0.148  0.140  0.946  0.000
  Li4313  Li1+  0.450  0.631  0.411  0.000
  Li2839  Li1+  0.248  0.662  0.889  0.000
  Li1402  Li1+  0.146  0.873  0.351  0.000
  Li7128  Li1+  0.852  0.569  0.214  0.000
  Li6836  Li1+  0.958  0.221  0.349  0.000
  Li3012  Li1+  0.200  0.823  0.582  0.000
  Li1932  Li1+  0.217  0.242  0.053  0.000
  Li6741  Li1+  0.850  0.306  0.019  0.000
  Li3799  Li1+  0.448  0.262  0.889  0.000
  Li4154  Li1+  0.546  0.473  0.951  0.000
  Li5218  Li1+  0.656  0.267  0.354  0.000
  Li984  Li1+  0.052  0.769  0.014  0.000
  Li6650  Li1+  0.946  0.073  0.751  0.001
  Li7540  Li1+  0.958  0.621  0.549  0.001
  Li3581  Li1+  0.550  0.317  0.018  0.001
  Li5380  Li1+  0.600  0.223  0.982  0.001
  Li250  Li1+  0.146  0.073  0.751  0.001
  Li6333  Li1+  0.750  0.917  0.618  0.001
  Li5996  Li1+  0.750  0.662  0.688  0.001
  Li4362  Li1+  0.429  0.750  0.789  0.001
  Li1058  Li1+  0.056  0.667  0.354  0.001
  Li3969  Li1+  0.579  0.400  0.417  0.001
  Li7490  Li1+  0.823  0.600  0.414  0.001
  Li871  Li1+  0.094  0.552  0.781  0.001
  Li1866  Li1+  0.229  0.150  0.989  0.001
  Li1880  Li1+  0.252  0.169  0.814  0.001
  Li4852  Li1+  0.758  0.021  0.149  0.001
  Li4234  Li1+  0.429  0.750  0.389  0.001
  Li4532  Li1+  0.558  0.821  0.149  0.001
  Li7691  Li1+  0.998  0.825  0.050  0.001
  Li1742  Li1+  0.398  0.192  0.447  0.001
  Li1604  Li1+  0.200  0.023  0.182  0.001
  Li3874  Li1+  0.456  0.467  0.154  0.001
  Li4682  Li1+  0.429  0.950  0.789  0.001
  Li7156  Li1+  0.958  0.421  0.349  0.001
  Li1388  Li1+  0.150  0.862  0.288  0.001
  Li4400  Li1+  0.548  0.750  0.756  0.001
  Li3881  Li1+  0.502  0.475  0.115  0.001
  Li5865  Li1+  0.702  0.675  0.315  0.001
  Li521  Li1+  0.006  0.342  0.715  0.001
  Li4661  Li1+  0.546  0.935  0.547  0.001
  Li3008  Li1+  0.381  0.840  0.251  0.001
  Li3224  Li1+  0.452  0.169  0.014  0.001
  Li1178  Li1+  0.052  0.656  0.632  0.001
  Li5976  Li1+  0.652  0.769  0.614  0.001
  Li4404  Li1+  0.558  0.621  0.749  0.001
  Li6656  Li1+  0.981  0.040  0.651  0.001
  Li5636  Li1+  0.600  0.423  0.782  0.001
  Li900  Li1+  -0.000  0.423  0.982  0.001
  Li1422  Li1+  0.198  0.992  0.447  0.001
  Li1634  Li1+  0.256  0.067  0.154  0.001
  Li4952  Li1+  0.652  0.169  0.414  0.002
  Li917  Li1+  0.050  0.506  0.819  0.002
  Li6411  Li1+  0.998  0.025  0.050  0.002
  Li188  Li1+  0.160  0.054  0.582  0.002
  Li4967  Li1+  0.694  0.152  0.581  0.002
  Li6196  Li1+  0.758  0.821  0.349  0.002
  Li3042  Li1+  0.256  0.867  0.554  0.002
  Li3820  Li1+  0.550  0.262  0.888  0.002
  Li7500  Li1+  0.817  0.642  0.453  0.002
  Li1961  Li1+  0.302  0.275  0.115  0.002
  Li6668  Li1+  0.817  0.042  0.853  0.002
  Li594  Li1+  0.048  0.208  0.882  0.002
  Li1033  Li1+  0.006  0.742  0.315  0.002
  Li6916  Li1+  0.800  0.223  0.782  0.002
  Li5102  Li1+  0.750  0.079  0.814  0.002
  Li3221  Li1+  0.450  0.106  0.019  0.002
  Li469  Li1+  0.050  0.306  0.419  0.002
  Li2928  Li1+  0.348  0.950  0.156  0.002
  Li3572  Li1+  0.558  0.221  0.149  0.002
  Li425  Li1+  0.102  0.275  0.315  0.002
  Li3879  Li1+  0.494  0.552  0.181  0.002
  Li7172  Li1+  0.800  0.423  0.582  0.002
  Li2103  Li1+  0.348  0.381  0.479  0.002
  Li762  Li1+  0.146  0.473  0.351  0.002
  Li5141  Li1+  0.650  0.306  0.019  0.002
  Li5717  Li1+  0.650  0.506  0.819  0.002
  Li3380  Li1+  0.558  0.021  0.549  0.002
  Li6631  Li1+  0.894  0.152  0.781  0.002
  Li3260  Li1+  0.560  0.054  0.182  0.002
  Li4137  Li1+  0.502  0.475  0.915  0.002
  Li2089  Li1+  0.302  0.275  0.515  0.002
  Li1658  Li1+  0.346  0.073  0.151  0.003
  Li7834  Li1+  0.852  0.856  0.432  0.003
  Li5273  Li1+  0.650  0.231  0.411  0.003
  Li6613  Li1+  0.850  0.106  0.619  0.003
  Li5401  Li1+  0.650  0.231  0.811  0.003
  Li1331  Li1+  0.148  0.965  0.014  0.003
  Li2580  Li1+  0.246  0.756  0.150  0.003
  Li1850  Li1+  0.346  0.073  0.751  0.003
  Li5975  Li1+  0.648  0.662  0.689  0.003
  Li6208  Li1+  0.781  0.840  0.251  0.003
  Li2423  Li1+  0.348  0.581  0.479  0.003
  Li5303  Li1+  0.748  0.381  0.479  0.003
  Li5523  Li1+  0.650  0.540  0.294  0.003
  Li7016  Li1+  0.898  0.310  0.851  0.003
  Li1513  Li1+  0.102  0.875  0.715  0.003
  Li674  Li1+  0.056  0.467  0.154  0.003
  Li7074  Li1+  0.856  0.467  0.154  0.003
  Li6602  Li1+  0.829  0.150  0.789  0.003
  Li5620  Li1+  0.758  0.421  0.549  0.003
  Li7773  Li1+  0.848  0.998  0.281  0.003
  Li6505  Li1+  0.902  0.075  0.315  0.003
  Li7178  Li1+  0.829  0.550  0.589  0.003
  Li1001  Li1+  0.102  0.675  0.115  0.003
  Li3508  Li1+  0.558  0.021  0.949  0.003
  Li6064  Li1+  0.748  0.750  0.956  0.003
  Li3031  Li1+  0.248  0.862  0.489  0.003
  Li778  Li1+  0.029  0.550  0.589  0.003
  Li1378  Li1+  0.056  0.867  0.354  0.003
  Li5641  Li1+  0.606  0.542  0.715  0.003
  Li1847  Li1+  0.348  0.181  0.679  0.003
  Li2234  Li1+  0.346  0.273  0.951  0.003
  Li2345  Li1+  0.302  0.475  0.315  0.003
  Li4861  Li1+  0.750  0.117  0.018  0.003
  Li4753  Li1+  0.598  0.800  0.851  0.003
  Li5516  Li1+  0.617  0.442  0.253  0.003
  Li3712  Li1+  0.581  0.240  0.451  0.003
  Li489  Li1+  0.102  0.275  0.515  0.003
  Li2977  Li1+  0.296  0.867  0.250  0.003
  Li1813  Li1+  0.250  0.106  0.619  0.003
  Li4327  Li1+  0.494  0.752  0.581  0.003
  Li5642  Li1+  0.629  0.550  0.789  0.003
  Li7167  Li1+  0.969  0.550  0.389  0.003
  Li2689  Li1+  0.379  0.600  0.417  0.004
  Li4402  Li1+  0.548  0.637  0.615  0.004
  Li472  Li1+  0.052  0.369  0.414  0.004
  Li1497  Li1+  0.050  0.831  0.611  0.004
  Li4544  Li1+  0.581  0.840  0.051  0.004
  Li937  Li1+  0.102  0.475  0.915  0.004
  Li7360  Li1+  0.981  0.440  0.851  0.004
  Li3564  Li1+  0.550  0.262  0.088  0.004
  Li1102  Li1+  0.198  0.792  0.447  0.004
  Li7662  Li1+  0.950  0.679  0.814  0.004
  Li85  Li1+  0.050  0.106  0.219  0.004
  Li4983  Li1+  0.748  0.181  0.479  0.004
  Li1460  Li1+  0.158  0.821  0.549  0.004
  Li414  Li1+  0.056  0.242  0.314  0.004
  Li3392  Li1+  0.581  0.040  0.451  0.004
  Li24  Li1+  0.052  0.169  0.014  0.004
  Li34  Li1+  0.056  0.067  0.154  0.004
  Li1897  Li1+  0.302  0.075  0.915  0.004
  Li4386  Li1+  0.456  0.667  0.754  0.004
  Li5525  Li1+  0.650  0.506  0.219  0.004
  Li1533  Li1+  0.150  0.917  0.618  0.004
  Li4908  Li1+  0.750  0.062  0.288  0.004
  Li3247  Li1+  0.548  0.142  0.093  0.004
  Li7847  Li1+  0.894  0.952  0.581  0.004
  Li7977  Li1+  0.902  0.875  0.915  0.005
  Li3755  Li1+  0.529  0.346  0.707  0.005
  Li681  Li1+  0.102  0.475  0.115  0.005
  Li5521  Li1+  0.798  0.400  0.251  0.005
  Li6680  Li1+  0.852  0.169  0.814  0.005
  Li522  Li1+  0.029  0.350  0.789  0.005
  Li7538  Li1+  0.948  0.637  0.415  0.005
  Li6245  Li1+  0.698  0.900  0.447  0.005
  Li4346  Li1+  0.546  0.673  0.551  0.005
  Li1577  Li1+  0.102  0.875  0.915  0.005
  Li4204  Li1+  0.550  0.662  0.088  0.005
  Li1305  Li1+  0.050  0.831  0.011  0.005
  Li6242  Li1+  0.656  0.867  0.554  0.005
  Li2813  Li1+  0.350  0.717  0.618  0.005
  Li526  Li1+  0.198  0.392  0.647  0.005
  Li1836  Li1+  0.350  0.062  0.688  0.005
  Li5578  Li1+  0.629  0.550  0.589  0.005
  Li7370  Li1+  0.829  0.750  0.189  0.005
  Li5337  Li1+  0.650  0.231  0.611  0.005
  Li2925  Li1+  0.346  0.844  0.114  0.005
  Li2712  Li1+  0.252  0.769  0.414  0.005
  Li7988  Li1+  0.958  0.821  0.949  0.005
  Li4484  Li1+  0.400  0.823  0.182  0.005
  Li4652  Li1+  0.550  0.862  0.488  0.005
  Li7464  Li1+  0.898  0.710  0.251  0.005
  Li4135  Li1+  0.494  0.552  0.981  0.005
  Li3672  Li1+  0.452  0.369  0.414  0.005
  Li482  Li1+  0.056  0.267  0.554  0.005
  Li1804  Li1+  0.217  0.042  0.653  0.006
  Li4398  Li1+  0.550  0.679  0.614  0.006
  Li5437  Li1+  0.750  0.317  0.818  0.006
  Li3146  Li1+  0.229  0.950  0.989  0.006
  Li7874  Li1+  0.823  0.800  0.614  0.006
  Li5815  Li1+  0.748  0.781  0.079  0.006
  Li279  Li1+  0.048  0.062  0.889  0.006
  Li1685  Li1+  0.250  0.106  0.219  0.006
  Li7818  Li1+  0.829  0.950  0.589  0.006
  Li6509  Li1+  0.946  0.044  0.314  0.006
  Li4905  Li1+  0.702  0.075  0.315  0.006
  Li2372  Li1+  0.200  0.423  0.582  0.006
  Li1245  Li1+  0.048  0.798  0.881  0.006
  Li780  Li1+  0.017  0.442  0.453  0.006
  Li7532  Li1+  0.950  0.662  0.488  0.006
  Li2793  Li1+  0.302  0.675  0.715  0.006
  Li2  Li1+  0.023  -0.000  0.014  0.007
  Li634  Li1+  0.146  0.273  0.951  0.007
  Li7256  Li1+  0.852  0.569  0.614  0.007
  Li4139  Li1+  0.529  0.546  0.907  0.007
  Li1142  Li1+  0.152  0.746  0.540  0.007
  Li990  Li1+  0.056  0.642  0.114  0.007
  Li2562  Li1+  0.223  0.600  0.014  0.007
  Li6915  Li1+  0.804  0.392  0.750  0.007
  Li4161  Li1+  0.579  0.600  0.017  0.007
  Li1394  Li1+  0.148  0.837  0.215  0.007
  Li2965  Li1+  0.250  0.906  0.219  0.007
  Li3383  Li1+  0.548  0.181  0.479  0.007
  Li7839  Li1+  0.850  0.910  0.421  0.007
  Li777  Li1+  0.006  0.542  0.515  0.007
  Li3414  Li1+  0.446  0.046  0.672  0.007
  Li5818  Li1+  0.746  0.673  0.151  0.007
  Li2932  Li1+  0.358  0.821  0.149  0.007
  Li2685  Li1+  0.350  0.717  0.218  0.007
  Li4420  Li1+  0.400  0.623  0.982  0.007
  Li372  Li1+  0.158  0.221  0.149  0.007
  Li1147  Li1+  0.148  0.604  0.482  0.007
  Li1301  Li1+  0.050  0.906  0.019  0.007
  Li5740  Li1+  0.750  0.462  0.888  0.007
  Li7876  Li1+  0.800  0.823  0.782  0.007
  Li6222  Li1+  0.798  0.992  0.447  0.007
  Li5974  Li1+  0.646  0.646  0.672  0.007
  Li4762  Li1+  0.452  0.856  0.832  0.007
  Li6967  Li1+  0.948  0.381  0.679  0.007
  Li663  Li1+  0.048  0.462  0.089  0.007
  Li3669  Li1+  0.450  0.306  0.419  0.008
  Li2548  Li1+  0.358  0.421  0.949  0.008
  Li7236  Li1+  0.800  0.423  0.782  0.008
  Li7242  Li1+  0.829  0.550  0.789  0.008
  Li213  Li1+  0.050  0.106  0.619  0.008
  Li3223  Li1+  0.448  0.062  0.089  0.008
  Li7637  Li1+  0.850  0.706  0.819  0.008
  Li1132  Li1+  0.150  0.662  0.488  0.008
  Li5528  Li1+  0.652  0.569  0.214  0.008
  Li5228  Li1+  0.750  0.262  0.288  0.008
  Li6432  Li1+  0.854  0.052  0.169  0.008
  Li2557  Li1+  0.350  0.517  0.818  0.008
  Li6644  Li1+  0.958  0.021  0.749  0.008
  Li1749  Li1+  0.250  0.106  0.419  0.008
  Li6266  Li1+  0.746  0.873  0.551  0.008
  Li6103  Li1+  0.648  0.862  0.089  0.008
  Li5892  Li1+  0.600  0.623  0.582  0.008
  Li5353  Li1+  0.702  0.275  0.715  0.008
  Li6970  Li1+  0.946  0.273  0.751  0.008
  Li5951  Li1+  0.769  0.750  0.589  0.008
  Li4885  Li1+  0.650  0.106  0.219  0.008
  Li4898  Li1+  0.656  0.067  0.354  0.008
  Li728  Li1+  0.052  0.569  0.214  0.008
  Li6906  Li1+  0.946  0.273  0.551  0.009
  Li5016  Li1+  0.652  0.169  0.614  0.009
  Li5909  Li1+  0.650  0.706  0.419  0.009
  Li2773  Li1+  0.250  0.706  0.619  0.009
  Li3372  Li1+  0.550  0.062  0.488  0.009
  Li5386  Li1+  0.629  0.350  0.989  0.009
  Li1112  Li1+  0.052  0.769  0.414  0.009
  Li6138  Li1+  0.746  0.873  0.151  0.009
  Li1175  Li1+  0.048  0.662  0.689  0.009
  Li4172  Li1+  0.417  0.642  0.053  0.009
  Li973  Li1+  -0.000  0.696  0.088  0.009
  Li5080  Li1+  0.652  0.169  0.814  0.009
  Li5673  Li1+  0.702  0.475  0.715  0.009
  Li5259  Li1+  0.798  0.225  0.450  0.009
  Li1546  Li1+  0.029  0.950  0.989  0.009
  Li1186  Li1+  0.056  0.667  0.754  0.009
  Li6773  Li1+  0.946  0.335  0.147  0.009
  Li7434  Li1+  0.829  0.750  0.389  0.010
  Li6281  Li1+  0.606  0.942  0.715  0.010
  Li823  Li1+  0.148  0.581  0.479  0.010
  Li7027  Li1+  0.948  0.365  0.814  0.010
  Li4631  Li1+  0.448  0.862  0.489  0.010
  Li6830  Li1+  0.950  0.279  0.214  0.010
  Li6210  Li1+  0.623  0.800  0.414  0.010
  Li644  Li1+  -0.000  0.423  0.182  0.010
  Li7768  Li1+  0.852  0.969  0.214  0.010
  Li2578  Li1+  0.248  0.608  0.082  0.010
  Li7330  Li1+  0.856  0.467  0.954  0.010
  Li4526  Li1+  0.550  0.879  0.014  0.010
  Li6553  Li1+  0.850  0.031  0.411  0.010
  Li6330  Li1+  0.746  0.873  0.751  0.010
  Li2180  Li1+  0.200  0.223  0.982  0.010
  Li1921  Li1+  0.379  0.200  0.017  0.010
  Li1075  Li1+  0.148  0.765  0.214  0.010
  Li642  Li1+  0.023  0.400  0.014  0.010
  Li1732  Li1+  0.200  0.023  0.582  0.010
  Li3700  Li1+  0.558  0.221  0.549  0.010
  Li5847  Li1+  0.648  0.662  0.289  0.011
  Li2102  Li1+  0.352  0.346  0.540  0.011
  Li4713  Li1+  0.502  0.875  0.715  0.011
  Li6202  Li1+  0.746  0.873  0.351  0.011
  Li7508  Li1+  0.846  0.756  0.550  0.011
  Li2798  Li1+  0.350  0.679  0.614  0.011
  Li5756  Li1+  0.760  0.454  0.982  0.011
  Li4894  Li1+  0.656  0.042  0.314  0.011
  Li7961  Li1+  0.850  0.831  0.811  0.011
  Li5090  Li1+  0.656  0.067  0.954  0.011
  Li1661  Li1+  0.350  0.117  0.018  0.011
  Li6889  Li1+  0.902  0.275  0.515  0.011
  Li7963  Li1+  0.848  0.952  0.801  0.011
  Li2007  Li1+  0.248  0.262  0.289  0.011
  Li4993  Li1+  0.779  -0.000  0.617  0.011
  Li6808  Li1+  0.852  0.369  0.214  0.011
  Li6120  Li1+  0.698  0.910  0.051  0.011
  Li7073  Li1+  0.896  0.467  0.050  0.011
  Li4858  Li1+  0.746  0.073  0.151  0.011
  Li2402  Li1+  0.256  0.467  0.554  0.011
  Li1303  Li1+  0.048  0.862  0.089  0.012
  Li5230  Li1+  0.750  0.279  0.214  0.012
  Li972  Li1+  0.017  0.642  0.053  0.012
  Li6188  Li1+  0.750  0.862  0.288  0.012
  Li4505  Li1+  0.450  0.831  0.011  0.012
  Li6724  Li1+  0.800  0.223  0.182  0.012
  Li616  Li1+  0.098  0.310  0.851  0.012
  Li2727  Li1+  0.294  0.752  0.581  0.012
  Li5185  Li1+  0.779  0.200  0.217  0.012
  Li7417  Li1+  0.952  0.644  0.069  0.012
  Li627  Li1+  0.148  0.365  0.814  0.012
  Li3756  Li1+  0.550  0.262  0.688  0.012
  Li4932  Li1+  0.600  0.023  0.582  0.012
  Li6164  Li1+  0.646  0.956  0.350  0.012
  Li3082  Li1+  0.229  0.950  0.789  0.012
  Li948  Li1+  0.158  0.421  0.949  0.012
  Li1442  Li1+  0.056  0.867  0.554  0.012
  Li6269  Li1+  0.750  0.917  0.418  0.012
  Li1257  Li1+  0.102  0.675  0.915  0.012
  Li4538  Li1+  0.546  0.873  0.151  0.013
  Li6168  Li1+  0.652  0.969  0.214  0.013
  Li2875  Li1+  0.348  0.604  0.882  0.013
  Li6105  Li1+  0.650  0.831  0.011  0.013
  Li7704  Li1+  0.852  0.969  0.014  0.013
  Li3052  Li1+  0.350  0.862  0.488  0.013
  Li1772  Li1+  0.350  0.062  0.488  0.013
  Li4247  Li1+  0.448  0.662  0.289  0.013
  Li496  Li1+  0.148  0.350  0.556  0.013
  Li3477  Li1+  0.450  0.106  0.819  0.013
  Li1129  Li1+  0.102  0.675  0.515  0.013
  Li2867  Li1+  0.348  0.765  0.814  0.013
  Li2697  Li1+  0.206  0.742  0.515  0.013
  Li168  Li1+  0.098  0.110  0.451  0.013
  Li2670  Li1+  0.350  0.679  0.214  0.013
  Li6183  Li1+  0.694  0.952  0.381  0.013
  Li3351  Li1+  0.448  0.062  0.489  0.013
  Li3915  Li1+  0.598  0.425  0.250  0.013
  Li7126  Li1+  0.846  0.446  0.272  0.013
  Li2904  Li1+  0.252  0.969  0.014  0.013
  Li4716  Li1+  0.550  0.862  0.688  0.014
  Li695  Li1+  0.148  0.581  0.079  0.014
  Li2001  Li1+  0.398  0.200  0.251  0.014
  Li6835  Li1+  0.948  0.365  0.214  0.014
  Li6660  Li1+  0.800  0.023  0.982  0.014
  Li1146  Li1+  0.146  0.673  0.551  0.014
  Li7680  Li1+  0.981  0.640  0.851  0.014
  Li2542  Li1+  0.350  0.479  0.814  0.014
  Li4524  Li1+  0.550  0.862  0.088  0.014
  Li2884  Li1+  0.200  0.823  0.182  0.014
  Li4471  Li1+  0.548  0.781  0.879  0.014
  Li3908  Li1+  0.400  0.423  0.382  0.014
  Li5986  Li1+  0.656  0.667  0.754  0.014
  Li7010  Li1+  0.856  0.267  0.954  0.014
  Li4464  Li1+  0.548  0.750  0.956  0.014
  Li5026  Li1+  0.656  0.067  0.754  0.014
  Li6551  Li1+  0.848  0.062  0.489  0.014
  Li1560  Li1+  0.052  0.969  0.814  0.014
  Li4031  Li1+  0.569  0.550  0.589  0.014
  Li5056  Li1+  0.781  0.040  0.651  0.015
  Li6137  Li1+  0.752  0.844  0.069  0.015
  Li6028  Li1+  0.617  0.642  0.853  0.015
  Li6809  Li1+  0.850  0.231  0.211  0.015
  Li5186  Li1+  0.623  0.200  0.214  0.015
  Li770  Li1+  0.023  0.400  0.414  0.015
  Li4087  Li1+  0.548  0.581  0.679  0.015
  Li6617  Li1+  0.850  0.031  0.611  0.015
  Li942  Li1+  0.150  0.479  0.814  0.015
  Li1211  Li1+  0.148  0.604  0.682  0.015
  Li4023  Li1+  0.548  0.581  0.479  0.015
  Li4377  Li1+  0.450  0.631  0.611  0.015
  Li3442  Li1+  0.548  0.037  0.615  0.015
  Li4248  Li1+  0.452  0.769  0.214  0.015
  Li6584  Li1+  0.948  0.050  0.426  0.015
  Li7479  Li1+  0.948  0.781  0.279  0.015
  Li2777  Li1+  0.250  0.631  0.611  0.015
  Li1666  Li1+  0.223  -0.000  0.214  0.015
  Li3282  Li1+  0.448  0.008  0.282  0.015
  Li4222  Li1+  0.548  0.740  0.146  0.015
  Li3594  Li1+  0.429  0.350  0.389  0.015
  Li4758  Li1+  0.446  0.846  0.872  0.015
  Li3291  Li1+  0.448  0.152  0.201  0.015
  Li7469  Li1+  0.946  0.644  0.314  0.016
  Li4851  Li1+  0.748  0.165  0.014  0.016
  Li319  Li1+  0.169  0.150  0.989  0.016
  Li788  Li1+  0.046  0.556  0.550  0.016
  Li119  Li1+  0.148  0.181  0.279  0.016
  Li7081  Li1+  0.902  0.475  0.115  0.016
  Li7145  Li1+  0.902  0.475  0.315  0.016
  Li3094  Li1+  0.246  0.846  0.672  0.016
  Li1975  Li1+  0.348  0.381  0.079  0.016
  Li6312  Li1+  0.698  0.910  0.651  0.016
  Li3066  Li1+  0.346  0.873  0.551  0.016
  Li2487  Li1+  0.348  0.581  0.679  0.016
  Li3258  Li1+  0.546  0.073  0.151  0.016
  Li7159  Li1+  0.948  0.581  0.279  0.017
  Li366  Li1+  0.150  0.279  0.014  0.017
  Li6776  Li1+  0.948  0.250  0.026  0.017
  Li7275  Li1+  0.929  0.546  0.707  0.017
  Li1079  Li1+  0.148  0.781  0.279  0.017
  Li6213  Li1+  0.648  0.842  0.528  0.017
  Li247  Li1+  0.148  0.181  0.679  0.017
  Li866  Li1+  0.056  0.467  0.754  0.017
  Li7482  Li1+  0.946  0.673  0.351  0.017
  Li4133  Li1+  0.498  0.500  0.847  0.017
  Li1935  Li1+  0.242  0.254  0.183  0.017
  Li6761  Li1+  0.902  0.275  0.115  0.017
  Li993  Li1+  0.096  0.667  0.050  0.017
  Li4438  Li1+  0.446  0.646  0.872  0.017
  Li578  Li1+  0.023  0.200  0.814  0.017
  Li3948  Li1+  0.550  0.462  0.288  0.018
  Li5466  Li1+  0.652  0.456  0.032  0.018
  Li7634  Li1+  0.848  0.608  0.882  0.018
  Li394  Li1+  0.029  0.350  0.389  0.018
  Li4046  Li1+  0.598  0.592  0.647  0.018
  Li6994  Li1+  0.848  0.208  0.882  0.018
  Li4462  Li1+  0.550  0.679  0.814  0.018
  Li975  Li1+  0.042  0.654  0.183  0.018
  Li729  Li1+  0.050  0.431  0.211  0.018
  Li510  Li1+  0.148  0.340  0.546  0.018
  Li3788  Li1+  0.417  0.242  0.853  0.018
  Li2877  Li1+  0.350  0.717  0.818  0.019
  Li3615  Li1+  0.450  0.310  0.221  0.019
  Li2409  Li1+  0.302  0.475  0.515  0.019
  Li4887  Li1+  0.648  0.062  0.289  0.019
  Li4450  Li1+  0.456  0.667  0.954  0.019
  Li7842  Li1+  0.856  0.867  0.554  0.019
  Li2068  Li1+  0.246  0.356  0.550  0.019
  Li5271  Li1+  0.648  0.262  0.489  0.019
  Li6229  Li1+  0.650  0.906  0.419  0.019
  Li4504  Li1+  0.452  0.969  0.014  0.019
  Li3453  Li1+  0.550  0.117  0.618  0.019
  Li5690  Li1+  0.746  0.473  0.751  0.019
  Li6346  Li1+  0.629  0.950  0.989  0.019
  Li6027  Li1+  0.798  0.625  0.850  0.019
  Li659  Li1+  0.050  0.540  0.094  0.019
  Li276  Li1+  0.046  0.156  0.950  0.019
  Li1752  Li1+  0.252  0.169  0.414  0.019
  Li3097  Li1+  0.250  0.831  0.611  0.019
  Li7628  Li1+  0.817  0.642  0.853  0.020
  Li2776  Li1+  0.252  0.769  0.614  0.020
  Li3704  Li1+  0.548  0.250  0.426  0.020
  Li6926  Li1+  0.998  0.392  0.647  0.020
  Li852  Li1+  0.046  0.556  0.750  0.020
  Li1459  Li1+  0.148  0.965  0.414  0.020
  Li7667  Li1+  0.948  0.765  0.814  0.020
  Li5248  Li1+  0.781  0.240  0.251  0.020
  Li7546  Li1+  0.946  0.673  0.551  0.020
  Li2734  Li1+  0.350  0.679  0.414  0.020
  Li2428  Li1+  0.360  0.454  0.582  0.020
  Li4084  Li1+  0.558  0.421  0.749  0.020
  Li2424  Li1+  0.348  0.450  0.426  0.021
  Li4653  Li1+  0.546  0.844  0.514  0.021
  Li918  Li1+  0.046  0.446  0.872  0.021
  Li895  Li1+  0.169  0.550  0.789  0.021
  Li7987  Li1+  0.948  0.965  0.814  0.021
  Li3308  Li1+  0.550  0.062  0.288  0.021
  Li4258  Li1+  0.456  0.667  0.354  0.021
  Li5626  Li1+  0.746  0.473  0.551  0.021
  Li7298  Li1+  0.823  0.400  0.814  0.021
  Li1611  Li1+  0.398  0.025  0.050  0.021
  Li7163  Li1+  0.948  0.404  0.282  0.021
  Li4654  Li1+  0.550  0.879  0.414  0.021
  Li6882  Li1+  0.856  0.267  0.554  0.021
  Li1077  Li1+  0.146  0.735  0.347  0.022
  Li6779  Li1+  0.948  0.204  0.082  0.022
  Li6594  Li1+  0.823  -0.000  0.614  0.022
  Li7886  Li1+  0.998  0.992  0.647  0.022
  Li3140  Li1+  0.200  0.823  0.982  0.022
  Li3382  Li1+  0.552  0.146  0.540  0.022
  Li1689  Li1+  0.250  0.031  0.211  0.022
  Li6295  Li1+  0.648  0.862  0.689  0.022
  Li7620  Li1+  0.800  0.623  0.982  0.022
  Li5655  Li1+  0.648  0.462  0.689  0.022
  Li4056  Li1+  0.452  0.569  0.614  0.022
  Li6562  Li1+  0.856  0.067  0.554  0.022
  Li4588  Li1+  0.550  0.862  0.288  0.022
  Li5130  Li1+  0.629  0.350  0.189  0.023
  Li1484  Li1+  0.017  0.842  0.653  0.023
  Li5018  Li1+  0.652  0.056  0.632  0.023
  Li4531  Li1+  0.548  0.965  0.014  0.023
  Li2314  Li1+  0.229  0.550  0.389  0.023
  Li567  Li1+  0.148  0.381  0.679  0.023
  Li2328  Li1+  0.252  0.569  0.214  0.023
  Li5751  Li1+  0.748  0.581  0.879  0.023
  Li5770  Li1+  0.629  0.750  0.189  0.024
  Li7124  Li1+  0.846  0.556  0.350  0.024
  Li979  Li1+  0.050  0.740  0.094  0.024
  Li1988  Li1+  0.200  0.223  0.382  0.024
  Li3502  Li1+  0.550  0.079  0.814  0.024
  Li6459  Li1+  0.948  0.004  0.082  0.024
  Li6742  Li1+  0.846  0.246  0.072  0.024
  Li3691  Li1+  0.529  0.346  0.507  0.024
  Li1788  Li1+  0.360  0.054  0.582  0.024
  Li4622  Li1+  0.598  0.992  0.447  0.024
  Li1469  Li1+  0.150  0.917  0.418  0.024
  Li2274  Li1+  0.256  0.467  0.154  0.024
  Li2682  Li1+  0.346  0.673  0.351  0.024
  Li5582  Li1+  0.798  0.592  0.447  0.025
  Li4666  Li1+  0.546  0.873  0.551  0.025
  Li5272  Li1+  0.652  0.369  0.414  0.025
  Li2382  Li1+  0.398  0.592  0.447  0.025
  Li2060  Li1+  0.217  0.242  0.453  0.025
  Li7300  Li1+  0.800  0.423  0.982  0.025
  Li3563  Li1+  0.529  0.346  0.107  0.025
  Li4119  Li1+  0.448  0.462  0.889  0.025
  Li1333  Li1+  0.146  0.935  0.147  0.025
  Li2305  Li1+  0.379  0.400  0.217  0.025
  Li688  Li1+  0.148  0.550  0.156  0.025
  Li5208  Li1+  0.652  0.369  0.214  0.025
  Li3609  Li1+  0.450  0.231  0.211  0.025
  Li6233  Li1+  0.650  0.831  0.411  0.025
  Li4181  Li1+  0.450  0.706  0.019  0.025
  Li3202  Li1+  0.423  -0.000  0.014  0.026
  Li1659  Li1+  0.348  0.004  0.082  0.026
  Li4339  Li1+  0.548  0.765  0.414  0.026
  Li108  Li1+  0.150  0.062  0.288  0.026
  Li7542  Li1+  0.952  0.746  0.540  0.026
  Li2944  Li1+  0.381  0.840  0.051  0.026
  Li2859  Li1+  0.329  0.746  0.907  0.026
  Li7250  Li1+  0.848  0.408  0.682  0.026
  Li3480  Li1+  0.452  0.169  0.814  0.026
  Li7981  Li1+  0.946  0.844  0.914  0.026
  Li1556  Li1+  0.046  0.956  0.950  0.026
  Li6323  Li1+  0.748  0.965  0.614  0.026
  Li5754  Li1+  0.746  0.473  0.951  0.026
  Li3278  Li1+  0.598  0.192  0.247  0.026
  Li2098  Li1+  0.348  0.237  0.415  0.026
  Li7646  Li1+  0.856  0.642  0.914  0.026
  Li4868  Li1+  0.600  0.023  0.382  0.026
  Li4959  Li1+  0.650  0.110  0.421  0.026
  Li2958  Li1+  0.398  0.992  0.247  0.026
  Li4314  Li1+  0.452  0.656  0.432  0.027
  Li5609  Li1+  0.702  0.475  0.515  0.027
  Li3251  Li1+  0.548  0.165  0.014  0.027
  Li1103  Li1+  0.042  0.654  0.583  0.027
  Li3914  Li1+  0.429  0.550  0.389  0.027
  Li3177  Li1+  0.302  0.875  0.915  0.027
  Li3340  Li1+  0.417  0.042  0.453  0.027
  Li2053  Li1+  0.248  0.242  0.528  0.027
  Li5313  Li1+  0.779  0.200  0.617  0.027
  Li1034  Li1+  0.029  0.750  0.389  0.027
  Li5036  Li1+  0.750  0.062  0.688  0.027
  Li3519  Li1+  0.569  0.150  0.989  0.027
  Li1099  Li1+  0.198  0.625  0.450  0.027
  Li4953  Li1+  0.650  0.031  0.411  0.027
  Li6977  Li1+  0.979  0.200  0.817  0.027
  Li6272  Li1+  0.781  0.840  0.451  0.027
  Li2739  Li1+  0.348  0.765  0.414  0.027
  Li3925  Li1+  0.450  0.506  0.219  0.027
  Li311  Li1+  0.148  0.181  0.879  0.028
  Li3330  Li1+  0.423  -0.000  0.414  0.028
  Li4410  Li1+  0.546  0.673  0.751  0.028
  Li1505  Li1+  0.096  0.867  0.650  0.028
  Li4805  Li1+  0.648  0.042  0.128  0.028
  Li6579  Li1+  0.948  0.165  0.414  0.028
  Li6465  Li1+  0.979  -0.000  0.217  0.028
  Li2216  Li1+  0.298  0.310  0.851  0.028
  Li1381  Li1+  0.098  0.900  0.247  0.028
  Li6206  Li1+  0.748  0.940  0.346  0.028
  Li5643  Li1+  0.798  0.425  0.650  0.028
  Li1789  Li1+  0.350  0.117  0.418  0.028
  Li1994  Li1+  0.229  0.350  0.389  0.028
  Li6455  Li1+  0.948  0.181  0.079  0.028
  Li2299  Li1+  0.348  0.404  0.082  0.028
  Li7227  Li1+  0.948  0.404  0.482  0.028
  Li1651  Li1+  0.348  0.165  0.014  0.029
  Li1353  Li1+  0.006  0.942  0.315  0.029
  Li3544  Li1+  0.452  0.369  0.014  0.029
  Li5527  Li1+  0.648  0.462  0.289  0.029
  Li2419  Li1+  0.348  0.565  0.414  0.029
  Li3895  Li1+  0.548  0.581  0.079  0.029
  Li74  Li1+  0.029  0.150  0.389  0.029
  Li4430  Li1+  0.598  0.792  0.847  0.029
  Li5164  Li1+  0.750  0.262  0.088  0.029
  Li1801  Li1+  0.206  0.142  0.715  0.029
  Li1523  Li1+  0.148  0.965  0.614  0.029
  Li6677  Li1+  0.850  0.106  0.819  0.029
  Li4282  Li1+  0.546  0.673  0.351  0.029
  Li7860  Li1+  0.958  0.821  0.549  0.030
  Li7512  Li1+  0.852  0.769  0.414  0.030
  Li783  Li1+  0.042  0.454  0.583  0.030
  Li3928  Li1+  0.452  0.569  0.214  0.030
  Li3056  Li1+  0.348  0.950  0.556  0.030
  Li2113  Li1+  0.379  0.200  0.617  0.030
  Li6935  Li1+  0.848  0.262  0.689  0.030
  Li2222  Li1+  0.350  0.279  0.814  0.030
  Li3894  Li1+  0.552  0.546  0.140  0.030
  Li2136  Li1+  0.252  0.369  0.614  0.030
  Li3049  Li1+  0.302  0.875  0.515  0.030
  Li7796  Li1+  0.958  0.821  0.349  0.030
  Li7465  Li1+  0.902  0.675  0.315  0.030
  Li2291  Li1+  0.348  0.565  0.014  0.030
  Li1584  Li1+  0.148  0.950  0.956  0.030
  Li2895  Li1+  0.242  0.854  0.183  0.030
  Li5481  Li1+  0.702  0.475  0.115  0.031
  Li5292  Li1+  0.750  0.262  0.488  0.031
  Li2837  Li1+  0.250  0.706  0.819  0.031
  Li3841  Li1+  0.579  0.400  0.017  0.031
  Li6518  Li1+  0.952  0.146  0.340  0.031
  Li4136  Li1+  0.498  0.510  0.851  0.031
  Li2168  Li1+  0.348  0.250  0.626  0.031
  Li7273  Li1+  0.902  0.475  0.715  0.031
  Li4986  Li1+  0.746  0.073  0.551  0.031
  Li138  Li1+  0.029  0.150  0.589  0.031
  Li7148  Li1+  0.950  0.462  0.288  0.031
  Li5144  Li1+  0.652  0.369  0.014  0.031
  Li6463  Li1+  0.969  0.150  0.189  0.031
  Li7086  Li1+  0.950  0.479  0.014  0.031
  Li5845  Li1+  0.650  0.706  0.219  0.031
  Li2679  Li1+  0.348  0.781  0.279  0.031
  Li2151  Li1+  0.294  0.352  0.781  0.031
  Li1660  Li1+  0.360  0.054  0.182  0.031
  Li1774  Li1+  0.350  0.079  0.414  0.032
  Li6190  Li1+  0.750  0.879  0.214  0.032
  Li1262  Li1+  0.150  0.679  0.814  0.032
  Li2392  Li1+  0.252  0.569  0.414  0.032
  Li457  Li1+  0.006  0.342  0.515  0.032
  Li4881  Li1+  0.798  -0.000  0.251  0.032
  Li709  Li1+  0.048  0.442  0.328  0.032
  Li1945  Li1+  0.250  0.231  0.011  0.032
  Li5402  Li1+  0.652  0.256  0.832  0.032
  Li1284  Li1+  -0.000  0.823  0.182  0.032
  Li6198  Li1+  0.752  0.946  0.340  0.032
  Li2167  Li1+  0.348  0.381  0.679  0.032
  Li331  Li1+  0.198  0.225  0.050  0.032
  Li3112  Li1+  0.298  0.910  0.651  0.032
  Li4370  Li1+  0.448  0.608  0.682  0.032
  Li7506  Li1+  0.848  0.608  0.482  0.032
  Li5590  Li1+  0.646  0.446  0.472  0.032
  Li6709  Li1+  0.946  0.135  0.947  0.032
  Li6877  Li1+  0.848  0.398  0.481  0.033
  Li7896  Li1+  0.852  0.969  0.614  0.033
  Li4072  Li1+  0.498  0.510  0.651  0.033
  Li4041  Li1+  0.406  0.542  0.715  0.033
  Li2572  Li1+  0.217  0.642  0.053  0.033
  Li1111  Li1+  0.048  0.662  0.489  0.033
  Li6124  Li1+  0.750  0.862  0.088  0.034
  Li6146  Li1+  0.623  0.800  0.214  0.034
  Li6256  Li1+  0.748  0.950  0.556  0.034
  Li216  Li1+  0.052  0.169  0.614  0.034
  Li7851  Li1+  0.929  0.946  0.507  0.034
  Li6306  Li1+  0.656  0.867  0.754  0.034
  Li4449  Li1+  0.496  0.667  0.850  0.034
  Li7306  Li1+  0.829  0.550  0.989  0.034
  Li3551  Li1+  0.450  0.310  0.021  0.034
  Li3051  Li1+  0.329  0.946  0.507  0.034
  Li619  Li1+  0.129  0.346  0.907  0.034
  Li4098  Li1+  0.423  0.400  0.814  0.035
  Li5369  Li1+  0.752  0.244  0.669  0.035
  Li6707  Li1+  0.948  0.165  0.814  0.035
  Li7915  Li1+  0.929  0.946  0.707  0.035
  Li238  Li1+  0.150  0.079  0.614  0.035
  Li850  Li1+  0.048  0.408  0.682  0.035
  Li1983  Li1+  0.369  0.350  0.189  0.035
  Li2027  Li1+  0.329  0.346  0.307  0.035
  Li4162  Li1+  0.423  0.600  0.014  0.035
  Li1654  Li1+  0.352  0.146  0.140  0.035
  Li3506  Li1+  0.548  0.037  0.815  0.035
  Li6896  Li1+  0.948  0.350  0.556  0.035
  Li5794  Li1+  0.656  0.667  0.154  0.035
  Li4946  Li1+  0.648  0.008  0.482  0.035
  Li5356  Li1+  0.750  0.262  0.688  0.036
  Li1538  Li1+  0.023  0.800  0.814  0.036
  Li1089  Li1+  0.179  0.600  0.417  0.036
  Li4961  Li1+  0.696  0.067  0.450  0.036
  Li7802  Li1+  0.946  0.873  0.351  0.036
  Li5210  Li1+  0.652  0.256  0.232  0.036
  Li6891  Li1+  0.929  0.346  0.507  0.036
  Li281  Li1+  0.050  0.031  0.811  0.036
  Li5238  Li1+  0.752  0.346  0.340  0.036
  Li7868  Li1+  0.960  0.854  0.582  0.036
  Li4078  Li1+  0.550  0.479  0.614  0.037
  Li5721  Li1+  0.650  0.431  0.811  0.037
  Li219  Li1+  0.048  0.152  0.601  0.037
  Li1236  Li1+  0.046  0.756  0.950  0.037
  Li3577  Li1+  0.552  0.244  0.069  0.037
  Li3937  Li1+  0.496  0.467  0.250  0.037
  Li1724  Li1+  0.360  0.054  0.382  0.037
  Li3670  Li1+  0.446  0.246  0.472  0.037
  Li3293  Li1+  0.448  0.198  0.281  0.037
  Li6357  Li1+  0.650  0.906  0.819  0.037
  Li7492  Li1+  0.800  0.623  0.582  0.037
  Li5352  Li1+  0.698  0.310  0.651  0.037
  Li4131  Li1+  0.498  0.400  0.813  0.037
  Li6958  Li1+  0.950  0.279  0.614  0.037
  Li3839  Li1+  0.569  0.350  0.989  0.037
  Li864  Li1+  0.054  0.452  0.769  0.037
  Li2786  Li1+  0.256  0.667  0.754  0.037
  Li910  Li1+  0.198  0.592  0.847  0.037
  Li6848  Li1+  0.981  0.240  0.251  0.037
  Li7108  Li1+  0.800  0.423  0.382  0.037
  Li1346  Li1+  0.023  0.800  0.214  0.037
  Li7507  Li1+  0.850  0.740  0.494  0.037
  Li4354  Li1+  0.423  0.600  0.614  0.038
  Li193  Li1+  0.179  -0.000  0.617  0.038
  Li4794  Li1+  0.546  0.873  0.951  0.038
  Li127  Li1+  0.169  0.150  0.389  0.038
  Li7347  Li1+  0.948  0.565  0.814  0.038
  Li2466  Li1+  0.256  0.467  0.754  0.038
  Li4439  Li1+  0.448  0.662  0.889  0.038
  Li1746  Li1+  0.248  0.008  0.482  0.038
  Li3520  Li1+  0.581  0.040  0.851  0.038
  Li53  Li1+  0.146  0.135  0.147  0.038
  Li180  Li1+  0.158  0.021  0.549  0.038
  Li343  Li1+  0.048  0.262  0.089  0.038
  Li5962  Li1+  0.629  0.750  0.789  0.038
  Li6658  Li1+  0.823  -0.000  0.814  0.038
  Li249  Li1+  0.152  0.044  0.669  0.038
  Li7866  Li1+  0.946  0.873  0.551  0.038
  Li5868  Li1+  0.750  0.662  0.288  0.038
  Li2412  Li1+  0.350  0.462  0.488  0.039
  Li7649  Li1+  0.896  0.667  0.850  0.039
  Li344  Li1+  0.052  0.369  0.014  0.039
  Li2885  Li1+  0.248  0.842  0.128  0.039
  Li2535  Li1+  0.294  0.552  0.981  0.039
  Li6458  Li1+  0.946  0.073  0.151  0.039
  Li5708  Li1+  0.617  0.442  0.853  0.039
  Li6521  Li1+  0.952  0.044  0.269  0.039
  Li834  Li1+  0.023  0.400  0.614  0.039
  Li6818  Li1+  0.856  0.267  0.354  0.039
  Li4965  Li1+  0.698  0.100  0.447  0.039
  Li6418  Li1+  0.848  0.008  0.082  0.039
  Li2722  Li1+  0.256  0.667  0.554  0.039
  Li4467  Li1+  0.548  0.765  0.814  0.039
  Li2099  Li1+  0.348  0.365  0.414  0.039
  Li6131  Li1+  0.748  0.965  0.014  0.039
  Li7038  Li1+  0.948  0.340  0.946  0.039
  Li2210  Li1+  0.256  0.267  0.954  0.039
  Li4393  Li1+  0.502  0.675  0.715  0.040
  Li444  Li1+  0.160  0.254  0.382  0.040
  Li1403  Li1+  0.148  0.804  0.282  0.040
  Li1858  Li1+  0.223  -0.000  0.814  0.040
  Li7129  Li1+  0.850  0.431  0.211  0.040
  Li1131  Li1+  0.129  0.746  0.507  0.040
  Li3497  Li1+  0.502  0.075  0.915  0.040
  Li6478  Li1+  0.998  0.192  0.247  0.040
  Li270  Li1+  0.198  0.192  0.847  0.040
  Li2521  Li1+  0.250  0.431  0.811  0.040
  Li132  Li1+  -0.000  0.023  0.582  0.040
  Li1456  Li1+  0.148  0.950  0.556  0.040
  Li7959  Li1+  0.848  0.862  0.889  0.040
  Li7030  Li1+  0.952  0.346  0.940  0.040
  Li3118  Li1+  0.350  0.879  0.614  0.040
  Li7997  Li1+  0.950  0.917  0.818  0.040
  Li4924  Li1+  0.760  0.054  0.382  0.040
  Li5629  Li1+  0.750  0.517  0.418  0.040
  Li6135  Li1+  0.748  0.981  0.079  0.040
  Li7020  Li1+  0.950  0.262  0.888  0.041
  Li906  Li1+  0.029  0.550  0.989  0.041
  Li158  Li1+  0.056  0.042  0.514  0.041
  Li4976  Li1+  0.748  0.150  0.556  0.041
  Li1631  Li1+  0.250  0.110  0.021  0.041
  Li296  Li1+  0.098  0.110  0.851  0.041
  Li4357  Li1+  0.448  0.642  0.728  0.041
  Li5747  Li1+  0.748  0.565  0.814  0.041
  Li6996  Li1+  0.846  0.356  0.950  0.041
  Li5422  Li1+  0.750  0.279  0.814  0.041
  Li1776  Li1+  0.348  0.150  0.556  0.041
  Li2919  Li1+  0.294  0.952  0.181  0.041
  Li4334  Li1+  0.550  0.679  0.414  0.042
  Li1580  Li1+  0.150  0.862  0.888  0.042
  Li1371  Li1+  0.048  0.952  0.201  0.042
  Li7692  Li1+  0.817  0.842  0.053  0.042
  Li4862  Li1+  0.748  0.140  0.146  0.042
  Li1708  Li1+  0.350  0.062  0.288  0.042
  Li6175  Li1+  0.650  0.910  0.221  0.042
  Li6351  Li1+  0.642  0.854  0.983  0.042
  Li4951  Li1+  0.648  0.062  0.489  0.042
  Li4057  Li1+  0.450  0.431  0.611  0.042
  Li2878  Li1+  0.348  0.740  0.946  0.043
  Li1418  Li1+  0.029  0.950  0.589  0.043
  Li3310  Li1+  0.550  0.079  0.214  0.043
  Li5890  Li1+  0.623  0.600  0.414  0.043
  Li1035  Li1+  0.198  0.625  0.250  0.043
  Li5889  Li1+  0.779  0.600  0.417  0.043
  Li1356  Li1+  0.017  0.842  0.253  0.043
  Li4501  Li1+  0.450  0.906  0.019  0.043
  Li6514  Li1+  0.948  0.037  0.215  0.043
  Li6782  Li1+  0.948  0.340  0.146  0.043
  Li417  Li1+  0.096  0.267  0.250  0.043
  Li44  Li1+  0.150  0.062  0.088  0.043
  Li1726  Li1+  0.348  0.140  0.346  0.043
  Li357  Li1+  0.098  0.300  0.047  0.043
  Li6527  Li1+  0.969  0.150  0.389  0.043
  Li6003  Li1+  0.748  0.765  0.614  0.043
  Li5416  Li1+  0.698  0.310  0.851  0.044
  Li5848  Li1+  0.652  0.769  0.214  0.044
  Li2872  Li1+  0.348  0.650  0.826  0.044
  Li1076  Li1+  0.158  0.621  0.349  0.044
  Li555  Li1+  0.129  0.346  0.707  0.044
  Li7863  Li1+  0.948  0.981  0.479  0.044
  Li6143  Li1+  0.769  0.950  0.189  0.044
  Li7606  Li1+  0.952  0.746  0.740  0.044
  Li1515  Li1+  0.129  0.946  0.707  0.044
  Li3579  Li1+  0.548  0.204  0.082  0.044
  Li6153  Li1+  0.606  0.942  0.315  0.044
  Li3827  Li1+  0.548  0.365  0.814  0.044
  Li6045  Li1+  0.648  0.798  0.881  0.045
  Li6943  Li1+  0.850  0.310  0.621  0.045
  Li2795  Li1+  0.329  0.746  0.707  0.045
  Li7994  Li1+  0.946  0.873  0.951  0.045
  Li7784  Li1+  0.898  0.910  0.251  0.045
  Li981  Li1+  0.050  0.706  0.019  0.045
  Li5819  Li1+  0.748  0.604  0.082  0.045
  Li2881  Li1+  0.379  0.800  0.017  0.045
  Li4083  Li1+  0.548  0.565  0.614  0.046
  Li6825  Li1+  0.902  0.275  0.315  0.046
  Li795  Li1+  0.048  0.552  0.401  0.046
  Li6421  Li1+  0.850  0.106  0.019  0.046
  Li3758  Li1+  0.550  0.279  0.614  0.046
  Li2302  Li1+  0.348  0.540  0.146  0.046
  Li2498  Li1+  0.223  0.400  0.814  0.046
  Li361  Li1+  0.102  0.275  0.115  0.046
  Li4036  Li1+  0.400  0.423  0.782  0.046
  Li5122  Li1+  0.623  0.200  0.014  0.046
  Li6139  Li1+  0.748  0.804  0.082  0.046
  Li4284  Li1+  0.560  0.654  0.382  0.046
  Li4715  Li1+  0.529  0.946  0.707  0.046
  Li3724  Li1+  0.417  0.242  0.653  0.046
  Li3778  Li1+  0.423  0.200  0.814  0.047
  Li799  Li1+  0.050  0.510  0.421  0.047
  Li1867  Li1+  0.398  0.025  0.850  0.047
  Li6039  Li1+  0.648  0.662  0.889  0.047
  Li1540  Li1+  -0.000  0.823  0.982  0.047
  Li2634  Li1+  0.229  0.750  0.389  0.047
  Li4587  Li1+  0.529  0.946  0.307  0.047
  Li571  Li1+  0.148  0.204  0.682  0.047
  Li1816  Li1+  0.252  0.169  0.614  0.047
  Li2520  Li1+  0.252  0.569  0.814  0.047
  Li6590  Li1+  0.948  0.140  0.546  0.048
  Li6409  Li1+  0.806  0.142  0.115  0.048
  Li7257  Li1+  0.850  0.431  0.611  0.048
  Li6846  Li1+  0.948  0.340  0.346  0.048
  Li7385  Li1+  0.850  0.631  0.011  0.048
  Li5631  Li1+  0.769  0.550  0.589  0.048
  Li3518  Li1+  0.548  0.140  0.946  0.048
  Li2604  Li1+  0.350  0.662  0.088  0.048
  Li6526  Li1+  0.948  0.140  0.346  0.048
  Li1802  Li1+  0.229  0.150  0.789  0.048
  Li5669  Li1+  0.698  0.500  0.647  0.048
  Li5791  Li1+  0.650  0.710  0.021  0.048
  Li6488  Li1+  0.852  0.169  0.214  0.048
  Li5377  Li1+  0.779  0.200  0.817  0.048
  Li1718  Li1+  0.352  0.146  0.340  0.048
  Li194  Li1+  0.023  -0.000  0.614  0.049
  Li1390  Li1+  0.150  0.879  0.214  0.049
  Li1944  Li1+  0.252  0.369  0.014  0.049
  Li798  Li1+  0.056  0.442  0.514  0.049
  Li7756  Li1+  0.817  0.842  0.253  0.049
  Li6067  Li1+  0.748  0.765  0.814  0.049
  Li7435  Li1+  0.998  0.625  0.250  0.049
  Li1963  Li1+  0.329  0.346  0.107  0.049
  Li6738  Li1+  0.848  0.208  0.082  0.049
  Li1930  Li1+  0.229  0.350  0.189  0.049
  Li1092  Li1+  -0.000  0.623  0.582  0.049
  Li3858  Li1+  0.448  0.408  0.082  0.049
  Li2194  Li1+  0.248  0.208  0.882  0.049
  Li6337  Li1+  0.779  0.800  0.817  0.049
  Li5828  Li1+  0.600  0.623  0.382  0.050
  Li2156  Li1+  0.350  0.262  0.688  0.050
  Li1561  Li1+  0.050  0.831  0.811  0.050
  Li3352  Li1+  0.452  0.169  0.414  0.050
  Li1144  Li1+  0.148  0.650  0.426  0.050
  Li3963  Li1+  0.548  0.404  0.282  0.050
  Li2260  Li1+  0.246  0.556  0.150  0.050
  Li7985  Li1+  0.950  0.952  0.803  0.050
  Li181  Li1+  0.146  0.135  0.547  0.050
  Li5361  Li1+  0.750  0.352  0.603  0.051
  Li4348  Li1+  0.560  0.654  0.582  0.051
  Li5247  Li1+  0.769  0.350  0.389  0.051
  Li1093  Li1+  0.048  0.642  0.528  0.051
  Li7064  Li1+  0.852  0.569  0.014  0.051
  Li3708  Li1+  0.560  0.254  0.582  0.051
  Li5692  Li1+  0.760  0.454  0.782  0.051
  Li2924  Li1+  0.350  0.862  0.088  0.051
  Li4342  Li1+  0.552  0.746  0.540  0.051
  Li1531  Li1+  0.148  0.804  0.682  0.051
  Li2830  Li1+  0.398  0.792  0.847  0.051
  Li1493  Li1+  0.050  0.906  0.619  0.051
  Li4189  Li1+  0.448  0.798  0.081  0.051
  Li5836  Li1+  0.617  0.642  0.253  0.051
  Li5465  Li1+  0.650  0.431  0.011  0.051
  Li6451  Li1+  0.948  0.165  0.014  0.051
  Li3391  Li1+  0.569  0.150  0.589  0.051
  Li3831  Li1+  0.548  0.381  0.879  0.051
  Li3927  Li1+  0.448  0.462  0.289  0.051
  Li273  Li1+  0.198  -0.000  0.851  0.051
  Li3785  Li1+  0.406  0.342  0.915  0.052
  Li257  Li1+  0.179  -0.000  0.817  0.052
  Li5291  Li1+  0.729  0.346  0.507  0.052
  Li4583  Li1+  0.494  0.952  0.381  0.052
  Li7282  Li1+  0.948  0.437  0.615  0.052
  Li6529  Li1+  0.979  -0.000  0.417  0.052
  Li1336  Li1+  0.148  0.850  0.026  0.052
  Li4730  Li1+  0.546  0.873  0.751  0.052
  Li7892  Li1+  0.846  0.956  0.750  0.052
  Li4350  Li1+  0.548  0.740  0.546  0.052
  Li6334  Li1+  0.748  0.940  0.746  0.052
  Li4249  Li1+  0.450  0.631  0.211  0.052
  Li3993  Li1+  0.450  0.431  0.411  0.052
  Li3772  Li1+  0.560  0.254  0.782  0.053
  Li6425  Li1+  0.850  0.031  0.011  0.053
  Li5808  Li1+  0.748  0.750  0.156  0.053
  Li4461  Li1+  0.546  0.644  0.914  0.053
  Li2306  Li1+  0.223  0.400  0.214  0.053
  Li5065  Li1+  0.606  0.142  0.915  0.053
  Li2905  Li1+  0.250  0.831  0.011  0.053
  Li4577  Li1+  0.496  0.867  0.250  0.053
  Li6489  Li1+  0.850  0.031  0.211  0.053
  Li1843  Li1+  0.348  0.165  0.614  0.053
  Li2094  Li1+  0.350  0.279  0.414  0.054
  Li2803  Li1+  0.348  0.765  0.614  0.054
  Li4328  Li1+  0.498  0.710  0.451  0.054
  Li2935  Li1+  0.348  0.981  0.079  0.054
  Li4490  Li1+  0.429  0.950  0.189  0.054
  Li5593  Li1+  0.650  0.431  0.411  0.054
  Li428  Li1+  0.150  0.262  0.288  0.054
  Li5310  Li1+  0.748  0.340  0.546  0.054
  Li2541  Li1+  0.346  0.444  0.914  0.055
  Li7308  Li1+  0.817  0.442  0.853  0.055
  Li1004  Li1+  0.150  0.662  0.088  0.055
  Li4668  Li1+  0.560  0.854  0.582  0.055
  Li4968  Li1+  0.698  0.110  0.451  0.055
  Li5323  Li1+  0.798  0.225  0.650  0.055
  Li6572  Li1+  0.950  0.062  0.488  0.055
  Li3688  Li1+  0.498  0.310  0.451  0.055
  Li7098  Li1+  0.946  0.473  0.151  0.055
  Li7924  Li1+  0.958  0.821  0.749  0.056
  Li5485  Li1+  0.746  0.444  0.114  0.056
  Li4797  Li1+  0.550  0.917  0.818  0.056
  Li5676  Li1+  0.750  0.462  0.688  0.056
  Li2237  Li1+  0.350  0.317  0.818  0.056
  Li5288  Li1+  0.698  0.310  0.451  0.056
  Li7105  Li1+  0.979  0.400  0.217  0.056
  Li6225  Li1+  0.798  0.800  0.451  0.056
  Li2791  Li1+  0.294  0.752  0.781  0.056
  Li5529  Li1+  0.650  0.431  0.211  0.056
  Li3639  Li1+  0.548  0.381  0.279  0.056
  Li4375  Li1+  0.448  0.662  0.689  0.056
  Li3673  Li1+  0.450  0.231  0.411  0.057
  Li87  Li1+  0.048  0.062  0.289  0.057
  Li3851  Li1+  0.598  0.425  0.050  0.057
  Li6209  Li1+  0.779  0.800  0.417  0.057
  Li3628  Li1+  0.550  0.262  0.288  0.057
  Li5279  Li1+  0.650  0.310  0.421  0.057
  Li4554  Li1+  0.429  0.950  0.389  0.057
  Li3068  Li1+  0.360  0.854  0.582  0.057
  Li3329  Li1+  0.579  -0.000  0.417  0.057
  Li2506  Li1+  0.229  0.550  0.989  0.058
  Li4228  Li1+  0.400  0.623  0.382  0.058
  Li2220  Li1+  0.350  0.262  0.888  0.058
  Li1048  Li1+  0.052  0.769  0.214  0.058
  Li7936  Li1+  0.981  0.840  0.651  0.058
  Li6583  Li1+  0.948  0.181  0.479  0.058
  Li4441  Li1+  0.450  0.631  0.811  0.058
  Li546  Li1+  0.056  0.267  0.754  0.058
  Li217  Li1+  0.050  0.031  0.611  0.058
  Li4289  Li1+  0.579  0.600  0.417  0.058
  Li7424  Li1+  0.981  0.640  0.051  0.058
  Li345  Li1+  0.050  0.231  0.011  0.058
  Li6049  Li1+  0.696  0.667  0.850  0.059
  Li3866  Li1+  0.452  0.456  0.032  0.059
  Li7444  Li1+  0.846  0.756  0.350  0.059
  Li3248  Li1+  0.548  0.150  0.156  0.059
  Li4939  Li1+  0.798  0.025  0.450  0.059
  Li4513  Li1+  0.496  0.867  0.050  0.059
  Li2902  Li1+  0.246  0.846  0.072  0.059
  Li1662  Li1+  0.348  0.140  0.146  0.059
  Li237  Li1+  0.146  0.044  0.714  0.060
  Li3939  Li1+  0.498  0.400  0.213  0.060
  Li7709  Li1+  0.848  0.998  0.081  0.060
  Li5558  Li1+  0.752  0.546  0.340  0.060
  Li1368  Li1+  0.052  0.969  0.214  0.060
  Li7285  Li1+  0.946  0.535  0.747  0.060
  Li2010  Li1+  0.252  0.256  0.232  0.060
  Li1047  Li1+  0.048  0.662  0.289  0.060
  Li7036  Li1+  0.960  0.254  0.982  0.060
  Li3864  Li1+  0.452  0.569  0.014  0.060
  Li5555  Li1+  0.748  0.565  0.214  0.060
  Li5853  Li1+  0.648  0.798  0.281  0.060
  Li5452  Li1+  0.617  0.442  0.053  0.060
  Li6125  Li1+  0.746  0.844  0.114  0.061
  Li7319  Li1+  0.848  0.462  0.889  0.061
  Li3543  Li1+  0.448  0.262  0.089  0.061
  Li2597  Li1+  0.298  0.700  0.047  0.061
  Li7160  Li1+  0.948  0.450  0.226  0.061
  Li6452  Li1+  0.958  0.021  0.149  0.061
  Li3822  Li1+  0.550  0.279  0.814  0.061
  Li2818  Li1+  0.223  0.600  0.814  0.061
  Li5630  Li1+  0.748  0.540  0.546  0.061
  Li7598  Li1+  0.950  0.679  0.614  0.061
  Li1779  Li1+  0.348  0.165  0.414  0.061
  Li4546  Li1+  0.423  0.800  0.214  0.061
  Li2122  Li1+  0.229  0.350  0.789  0.061
  Li5358  Li1+  0.750  0.279  0.614  0.062
  Li2444  Li1+  0.217  0.442  0.653  0.062
  Li1687  Li1+  0.248  0.062  0.289  0.062
  Li6356  Li1+  0.646  0.956  0.950  0.062
  Li3614  Li1+  0.456  0.242  0.314  0.062
  Li3415  Li1+  0.448  0.062  0.689  0.062
  Li5706  Li1+  0.629  0.550  0.989  0.062
  Li7382  Li1+  0.846  0.646  0.072  0.062
  Li7934  Li1+  0.948  0.940  0.746  0.062
  Li5338  Li1+  0.652  0.256  0.632  0.062
  Li2090  Li1+  0.350  0.254  0.571  0.063
  Li2432  Li1+  0.381  0.440  0.451  0.063
  Li7931  Li1+  0.948  0.804  0.682  0.063
  Li5235  Li1+  0.748  0.365  0.214  0.063
  Li2686  Li1+  0.348  0.740  0.346  0.063
  Li6303  Li1+  0.650  0.910  0.621  0.063
  Li3289  Li1+  0.450  0.031  0.211  0.063
  Li5867  Li1+  0.729  0.746  0.307  0.063
  Li4691  Li1+  0.450  0.940  0.694  0.063
  Li3175  Li1+  0.294  0.952  0.981  0.063
  Li1177  Li1+  0.050  0.631  0.611  0.063
  Li2762  Li1+  0.229  0.750  0.789  0.063
  Li5513  Li1+  0.606  0.542  0.315  0.063
  Li1280  Li1+  0.181  0.640  0.851  0.063
  Li5778  Li1+  0.648  0.608  0.082  0.063
  Li6335  Li1+  0.769  0.950  0.789  0.063
  Li2229  Li1+  0.346  0.335  0.947  0.064
  Li5550  Li1+  0.750  0.479  0.214  0.064
  Li936  Li1+  0.098  0.510  0.851  0.064
  Li3692  Li1+  0.550  0.262  0.488  0.064
  Li4356  Li1+  0.400  0.623  0.782  0.064
  Li1761  Li1+  0.296  0.067  0.450  0.064
  Li7670  Li1+  0.952  0.746  0.940  0.064
  Li1646  Li1+  0.350  0.079  0.014  0.064
  Li7586  Li1+  0.856  0.667  0.754  0.064
  Li1784  Li1+  0.348  0.050  0.426  0.064
  Li1196  Li1+  0.150  0.662  0.688  0.064
  Li3254  Li1+  0.552  0.146  0.140  0.064
  Li2522  Li1+  0.252  0.456  0.832  0.064
  Li2456  Li1+  0.252  0.569  0.614  0.064
  Li5921  Li1+  0.696  0.667  0.450  0.064
  Li4340  Li1+  0.558  0.621  0.549  0.064
  Li600  Li1+  0.052  0.369  0.814  0.064
  Li2318  Li1+  0.398  0.592  0.247  0.065
  Li3713  Li1+  0.579  0.200  0.617  0.065
  Li2510  Li1+  0.398  0.592  0.847  0.065
  Li7344  Li1+  0.948  0.550  0.956  0.065
  Li7348  Li1+  0.958  0.421  0.949  0.065
  Li7945  Li1+  0.806  0.942  0.915  0.065
  Li6999  Li1+  0.848  0.262  0.889  0.065
  Li2450  Li1+  0.248  0.408  0.682  0.065
  Li1138  Li1+  0.148  0.637  0.415  0.065
  Li1922  Li1+  0.223  0.200  0.014  0.065
  Li701  Li1+  0.150  0.517  0.018  0.065
  Li4434  Li1+  0.448  0.608  0.882  0.066
  Li3681  Li1+  0.496  0.267  0.450  0.066
  Li7200  Li1+  0.854  0.452  0.569  0.066
  Li7946  Li1+  0.829  0.950  0.989  0.066
  Li3244  Li1+  0.550  0.062  0.088  0.066
  Li2116  Li1+  0.200  0.223  0.782  0.066
  Li3568  Li1+  0.548  0.350  0.156  0.066
  Li4374  Li1+  0.446  0.646  0.672  0.066
  Li4261  Li1+  0.498  0.700  0.247  0.066
  Li828  Li1+  0.160  0.454  0.582  0.067
  Li7041  Li1+  0.979  0.400  0.017  0.067
  Li7088  Li1+  0.948  0.550  0.156  0.067
  Li6314  Li1+  0.750  0.854  0.771  0.067
  Li6328  Li1+  0.748  0.850  0.626  0.067
  Li3837  Li1+  0.550  0.317  0.818  0.067
  Li1934  Li1+  0.398  0.392  0.047  0.067
  Li1377  Li1+  0.096  0.867  0.250  0.067
  Li2570  Li1+  0.229  0.750  0.189  0.067
  Li6978  Li1+  0.823  0.200  0.814  0.067
  Li6771  Li1+  0.948  0.365  0.014  0.067
  Li6040  Li1+  0.652  0.769  0.814  0.067
  Li2421  Li1+  0.346  0.535  0.547  0.067
  Li7889  Li1+  0.998  0.800  0.651  0.067
  Li7969  Li1+  0.896  0.867  0.850  0.067
  Li888  Li1+  0.148  0.450  0.626  0.067
  Li334  Li1+  0.198  0.392  0.047  0.068
  Li4535  Li1+  0.548  0.981  0.079  0.068
  Li6387  Li1+  0.748  0.965  0.814  0.068
  Li4250  Li1+  0.452  0.656  0.232  0.068
  Li3438  Li1+  0.550  0.079  0.614  0.068
  Li3605  Li1+  0.450  0.306  0.219  0.068
  Li2458  Li1+  0.252  0.456  0.632  0.068
  Li3443  Li1+  0.548  0.165  0.614  0.068
  Li3706  Li1+  0.546  0.273  0.551  0.068
  Li321  Li1+  0.179  0.200  0.017  0.068
  Li2725  Li1+  0.298  0.700  0.447  0.068
  Li3805  Li1+  0.448  0.398  0.881  0.068
  Li6946  Li1+  0.856  0.267  0.754  0.069
  Li7336  Li1+  0.898  0.510  0.851  0.069
  Li6646  Li1+  0.952  0.146  0.740  0.069
  Li4606  Li1+  0.548  0.940  0.346  0.069
  Li6817  Li1+  0.896  0.267  0.250  0.069
  Li7192  Li1+  0.852  0.569  0.414  0.069
  Li3123  Li1+  0.348  0.965  0.614  0.069
  Li5562  Li1+  0.746  0.473  0.351  0.069
  Li242  Li1+  0.148  0.037  0.615  0.069
  Li167  Li1+  0.094  0.152  0.581  0.069
  Li6666  Li1+  0.829  0.150  0.989  0.069
  Li6252  Li1+  0.750  0.862  0.488  0.069
  Li6750  Li1+  0.856  0.242  0.114  0.069
  Li3771  Li1+  0.548  0.204  0.682  0.069
  Li6380  Li1+  0.750  0.862  0.888  0.070
  Li1200  Li1+  0.148  0.750  0.756  0.070
  Li1714  Li1+  0.348  0.037  0.215  0.070
  Li7541  Li1+  0.946  0.735  0.547  0.070
  Li3586  Li1+  0.423  0.200  0.214  0.070
  Li438  Li1+  0.152  0.346  0.340  0.070
  Li1771  Li1+  0.329  0.146  0.507  0.070
  Li3998  Li1+  0.456  0.442  0.514  0.070
  Li429  Li1+  0.146  0.244  0.314  0.070
  Li6482  Li1+  0.848  0.008  0.282  0.070
  Li6578  Li1+  0.948  0.037  0.415  0.071
  Li516  Li1+  -0.000  0.223  0.782  0.071
  Li4864  Li1+  0.781  0.040  0.051  0.071
  Li3460  Li1+  0.400  0.023  0.982  0.071
  Li2937  Li1+  0.352  0.844  0.069  0.071
  Li3677  Li1+  0.448  0.398  0.481  0.071
  Li5804  Li1+  0.750  0.662  0.088  0.071
  Li6865  Li1+  0.998  0.200  0.451  0.071
  Li6017  Li1+  0.779  0.600  0.817  0.071
  Li481  Li1+  0.096  0.267  0.450  0.071
  Li5242  Li1+  0.746  0.273  0.351  0.072
  Li4086  Li1+  0.552  0.546  0.740  0.072
  Li7928  Li1+  0.948  0.850  0.626  0.072
  Li4792  Li1+  0.548  0.850  0.826  0.072
  Li1297  Li1+  0.198  0.800  0.051  0.072
  Li7901  Li1+  0.848  0.998  0.681  0.072
  Li556  Li1+  0.150  0.262  0.688  0.072
  Li2295  Li1+  0.348  0.581  0.079  0.072
  Li2897  Li1+  0.398  0.800  0.051  0.073
  Li856  Li1+  0.052  0.569  0.614  0.073
  Li7252  Li1+  0.846  0.556  0.750  0.073
  Li950  Li1+  0.152  0.546  0.940  0.073
  Li4066  Li1+  0.456  0.467  0.754  0.073
  Li999  Li1+  0.094  0.752  0.181  0.073
  Li2107  Li1+  0.348  0.204  0.482  0.073
  Li1896  Li1+  0.298  0.110  0.851  0.073
  Li3390  Li1+  0.548  0.140  0.546  0.073
  Li5332  Li1+  0.646  0.356  0.750  0.073
  Li124  Li1+  0.160  0.054  0.382  0.073
  Li7350  Li1+  0.952  0.546  0.940  0.073
  Li2766  Li1+  0.398  0.792  0.647  0.073
  Li7615  Li1+  0.969  0.750  0.789  0.074
  Li7657  Li1+  0.902  0.675  0.915  0.074
  Li1061  Li1+  0.098  0.700  0.247  0.074
  Li6361  Li1+  0.650  0.831  0.811  0.074
  Li4389  Li1+  0.498  0.700  0.647  0.074
  Li5099  Li1+  0.729  0.146  0.907  0.074
  Li5607  Li1+  0.694  0.552  0.581  0.074
  Li7084  Li1+  0.950  0.462  0.088  0.075
  Li7554  Li1+  0.823  0.600  0.614  0.075
  Li4790  Li1+  0.552  0.946  0.940  0.075
  Li5942  Li1+  0.752  0.746  0.540  0.075
  Li1877  Li1+  0.250  0.106  0.819  0.075
  Li1557  Li1+  0.050  0.906  0.819  0.075
  Li94  Li1+  0.056  0.042  0.314  0.075
  Li6060  Li1+  0.750  0.662  0.888  0.076
  Li3396  Li1+  0.400  0.023  0.782  0.076
  Li4722  Li1+  0.548  0.837  0.615  0.076
  Li3136  Li1+  0.381  0.840  0.651  0.076
  Li3233  Li1+  0.496  0.067  0.050  0.076
  Li527  Li1+  0.042  0.254  0.783  0.076
  Li4097  Li1+  0.579  0.400  0.817  0.076
  Li2764  Li1+  0.217  0.642  0.653  0.076
  Li838  Li1+  0.154  0.444  0.722  0.076
  Li4761  Li1+  0.450  0.831  0.811  0.077
  Li128  Li1+  0.181  0.040  0.251  0.077
  Li97  Li1+  0.096  0.067  0.250  0.077
  Li2785  Li1+  0.296  0.667  0.650  0.077
  Li1134  Li1+  0.150  0.679  0.414  0.077
  Li5145  Li1+  0.650  0.231  0.011  0.077
  Li6645  Li1+  0.946  0.135  0.747  0.077
  Li4927  Li1+  0.769  0.150  0.389  0.078
  Li6077  Li1+  0.750  0.717  0.818  0.078
  Li1566  Li1+  0.056  0.842  0.914  0.078
  Li727  Li1+  0.048  0.462  0.289  0.078
  Li609  Li1+  0.096  0.267  0.850  0.078
  Li3190  Li1+  0.352  0.946  0.940  0.078
  Li6194  Li1+  0.748  0.837  0.215  0.078
  Li4050  Li1+  0.448  0.408  0.682  0.078
  Li1972  Li1+  0.358  0.221  0.149  0.078
  Li3286  Li1+  0.446  0.046  0.272  0.078
  Li2049  Li1+  0.379  0.200  0.417  0.078
  Li3297  Li1+  0.496  0.067  0.250  0.078
  Li1419  Li1+  0.198  0.825  0.450  0.078
  Li2525  Li1+  0.248  0.598  0.881  0.078
  Li2577  Li1+  0.398  0.600  0.051  0.078
  Li2442  Li1+  0.229  0.550  0.789  0.078
  Li6231  Li1+  0.648  0.862  0.489  0.078
  Li2941  Li1+  0.350  0.917  0.018  0.078
  Li985  Li1+  0.050  0.631  0.011  0.078
  Li511  Li1+  0.169  0.350  0.589  0.079
  Li6764  Li1+  0.950  0.262  0.088  0.079
  Li6508  Li1+  0.950  0.062  0.288  0.079
  Li7666  Li1+  0.948  0.637  0.815  0.079
  Li6643  Li1+  0.948  0.165  0.614  0.079
  Li715  Li1+  0.198  0.425  0.250  0.079
  Li1879  Li1+  0.248  0.062  0.889  0.079
  Li1226  Li1+  0.029  0.750  0.989  0.079
  Li685  Li1+  0.146  0.444  0.114  0.079
  Li7115  Li1+  0.998  0.425  0.250  0.079
  Li1640  Li1+  0.298  0.110  0.051  0.080
  Li6392  Li1+  0.748  0.850  0.826  0.080
  Li6716  Li1+  0.960  0.054  0.982  0.080
  Li2594  Li1+  0.256  0.667  0.154  0.080
  Li6251  Li1+  0.729  0.946  0.507  0.080
  Li3842  Li1+  0.423  0.400  0.014  0.080
  Li4352  Li1+  0.581  0.640  0.451  0.080
  Li3388  Li1+  0.560  0.054  0.582  0.080
  Li3210  Li1+  0.429  0.150  0.189  0.080
  Li3685  Li1+  0.498  0.300  0.447  0.080
  Li1214  Li1+  0.148  0.740  0.746  0.080
  Li6274  Li1+  0.623  0.800  0.614  0.081
  Li3255  Li1+  0.548  0.181  0.079  0.081
  Li14  Li1+  0.198  0.192  0.047  0.081
  Li1290  Li1+  0.029  0.950  0.189  0.081
  Li6587  Li1+  0.948  0.004  0.482  0.081
  Li7276  Li1+  0.950  0.462  0.688  0.081
  Li5761  Li1+  0.779  0.600  0.017  0.081
  Li212  Li1+  0.046  0.156  0.750  0.081
  Li2675  Li1+  0.348  0.765  0.214  0.081
  Li3319  Li1+  0.548  0.181  0.279  0.081
  Li4191  Li1+  0.450  0.710  0.021  0.081
  Li3474  Li1+  0.448  0.008  0.882  0.081
  Li7191  Li1+  0.848  0.462  0.489  0.082
  Li4233  Li1+  0.406  0.742  0.315  0.082
  Li1844  Li1+  0.358  0.021  0.749  0.082
  Li7777  Li1+  0.896  0.867  0.250  0.082
  Li3716  Li1+  0.400  0.223  0.782  0.082
  Li4878  Li1+  0.798  0.192  0.247  0.082
  Li3886  Li1+  0.550  0.479  0.014  0.082
  Li2517  Li1+  0.250  0.506  0.819  0.082
  Li81  Li1+  0.198  -0.000  0.251  0.082
  Li1648  Li1+  0.348  0.150  0.156  0.083
  Li6026  Li1+  0.629  0.750  0.989  0.083
  Li7663  Li1+  0.948  0.742  0.893  0.083
  Li57  Li1+  0.152  0.044  0.069  0.083
  Li4859  Li1+  0.748  0.004  0.082  0.083
  Li2141  Li1+  0.248  0.398  0.681  0.083
  Li10  Li1+  0.029  0.150  0.189  0.083
  Li3808  Li1+  0.454  0.252  0.969  0.084
  Li3416  Li1+  0.452  0.169  0.614  0.084
  Li7633  Li1+  0.998  0.600  0.851  0.084
  Li2622  Li1+  0.348  0.740  0.146  0.084
  Li7697  Li1+  0.998  0.800  0.051  0.084
  Li1207  Li1+  0.148  0.781  0.679  0.085
  Li5143  Li1+  0.648  0.262  0.089  0.085
  Li6111  Li1+  0.650  0.910  0.021  0.085
  Li3773  Li1+  0.550  0.317  0.618  0.085
  Li1189  Li1+  0.098  0.700  0.647  0.085
  Li115  Li1+  0.148  0.165  0.214  0.085
  Li5870  Li1+  0.750  0.679  0.214  0.085
  Li4705  Li1+  0.496  0.867  0.650  0.085
  Li2879  Li1+  0.369  0.750  0.989  0.085
  Li2626  Li1+  0.223  0.600  0.214  0.085
  Li7723  Li1+  0.929  0.946  0.107  0.085
  Li6395  Li1+  0.748  0.804  0.882  0.085
  Li6582  Li1+  0.952  0.146  0.540  0.085
  Li654  Li1+  0.198  0.592  0.047  0.086
  Li6082  Li1+  0.623  0.800  0.014  0.086
  Li3899  Li1+  0.548  0.404  0.082  0.086
  Li4156  Li1+  0.560  0.454  0.982  0.086
  Li1399  Li1+  0.148  0.981  0.279  0.086
  Li4930  Li1+  0.623  -0.000  0.414  0.086
  Li5918  Li1+  0.656  0.642  0.514  0.086
  Li2386  Li1+  0.248  0.408  0.482  0.086
  Li5635  Li1+  0.604  0.592  0.750  0.087
  Li4671  Li1+  0.569  0.950  0.589  0.087
  Li947  Li1+  0.148  0.565  0.814  0.087
  Li1327  Li1+  0.148  0.942  0.093  0.087
  Li236  Li1+  0.150  0.062  0.688  0.087
  Li7852  Li1+  0.950  0.862  0.488  0.087
  Li4595  Li1+  0.548  0.965  0.214  0.087
  Li365  Li1+  0.146  0.244  0.114  0.087
  Li6126  Li1+  0.750  0.879  0.014  0.087
  Li6625  Li1+  0.896  0.067  0.650  0.087
  Li6399  Li1+  0.769  0.950  0.989  0.087
  Li2198  Li1+  0.246  0.246  0.872  0.087
  Li6091  Li1+  0.798  0.825  0.050  0.088
  Li1154  Li1+  0.023  0.600  0.614  0.088
  Li3184  Li1+  0.348  0.950  0.956  0.088
  Li3457  Li1+  0.579  -0.000  0.817  0.088
  Li6108  Li1+  0.650  0.950  0.156  0.088
  Li4747  Li1+  0.598  0.825  0.850  0.088
  Li6852  Li1+  0.800  0.223  0.582  0.088
  Li6402  Li1+  0.823  -0.000  0.014  0.088
  Li485  Li1+  0.098  0.300  0.447  0.088
  Li6497  Li1+  0.896  0.067  0.250  0.088
  Li7328  Li1+  0.854  0.452  0.969  0.088
  Li4718  Li1+  0.550  0.879  0.614  0.088
  Li6873  Li1+  0.850  0.231  0.411  0.088
  Li1022  Li1+  0.148  0.740  0.146  0.089
  Li1610  Li1+  0.229  0.150  0.189  0.089
  Li5803  Li1+  0.729  0.746  0.107  0.089
  Li1304  Li1+  0.052  0.969  0.014  0.089
  Li2876  Li1+  0.360  0.654  0.982  0.089
  Li4745  Li1+  0.406  0.942  0.915  0.089
  Li7725  Li1+  0.946  0.844  0.114  0.089
  Li6167  Li1+  0.648  0.862  0.289  0.089
  Li2021  Li1+  0.298  0.300  0.247  0.090
  Li6232  Li1+  0.652  0.969  0.414  0.090
  Li2171  Li1+  0.348  0.204  0.682  0.090
  Li7100  Li1+  0.960  0.454  0.182  0.090
  Li6059  Li1+  0.729  0.746  0.907  0.090
  Li6794  Li1+  0.829  0.350  0.389  0.090
  Li1166  Li1+  0.198  0.792  0.647  0.090
  Li5344  Li1+  0.654  0.252  0.769  0.091
  Li5088  Li1+  0.654  0.052  0.969  0.091
  Li927  Li1+  0.050  0.510  0.821  0.091
  Li6964  Li1+  0.958  0.221  0.749  0.091
  Li2006  Li1+  0.246  0.246  0.272  0.091
  Li2518  Li1+  0.246  0.446  0.872  0.091
  Li1790  Li1+  0.348  0.140  0.546  0.091
  Li204  Li1+  0.017  0.042  0.653  0.091
  Li3316  Li1+  0.558  0.021  0.349  0.091
  Li6949  Li1+  0.898  0.300  0.647  0.091
  Li1886  Li1+  0.256  0.042  0.914  0.091
  Li6207  Li1+  0.769  0.950  0.389  0.092
  Li5602  Li1+  0.656  0.467  0.554  0.092
  Li5153  Li1+  0.696  0.267  0.050  0.092
  Li7884  Li1+  0.817  0.842  0.653  0.092
  Li5368  Li1+  0.748  0.250  0.626  0.092
  Li5992  Li1+  0.698  0.710  0.651  0.092
  Li6923  Li1+  0.998  0.225  0.650  0.092
  Li7289  Li1+  0.952  0.444  0.669  0.092
  Li31  Li1+  0.050  0.110  0.021  0.092
  Li6158  Li1+  0.798  0.992  0.247  0.092
  Li3779  Li1+  0.404  0.392  0.950  0.093
  Li5045  Li1+  0.746  0.135  0.747  0.093
  Li575  Li1+  0.169  0.350  0.789  0.093
  Li2698  Li1+  0.229  0.750  0.589  0.093
  Li6824  Li1+  0.898  0.310  0.251  0.093
  Li6783  Li1+  0.969  0.350  0.189  0.093
  Li7486  Li1+  0.948  0.740  0.346  0.093
  Li5043  Li1+  0.748  0.165  0.614  0.093
  Li172  Li1+  0.150  0.062  0.488  0.093
  Li2178  Li1+  0.223  0.200  0.814  0.093
  Li46  Li1+  0.150  0.079  0.014  0.094
  Li6932  Li1+  0.846  0.356  0.750  0.094
  Li5180  Li1+  0.760  0.254  0.182  0.094
  Li982  Li1+  0.046  0.646  0.072  0.094
  Li2860  Li1+  0.350  0.662  0.888  0.094
  Li1306  Li1+  0.052  0.856  0.032  0.094
  Li493  Li1+  0.146  0.244  0.514  0.094
  Li1974  Li1+  0.352  0.346  0.140  0.094
  Li6431  Li1+  0.850  0.110  0.021  0.094
  Li1220  Li1+  -0.000  0.623  0.982  0.094
  Li552  Li1+  0.098  0.310  0.651  0.094
  Li3246  Li1+  0.550  0.079  0.014  0.094
  Li3857  Li1+  0.598  0.400  0.051  0.094
  Li7724  Li1+  0.950  0.862  0.088  0.094
  Li7094  Li1+  0.952  0.546  0.140  0.095
  Li4937  Li1+  0.606  0.142  0.515  0.095
  Li6796  Li1+  0.817  0.242  0.253  0.095
  Li2004  Li1+  0.246  0.356  0.350  0.095
  Li6484  Li1+  0.846  0.156  0.350  0.096
  Li2092  Li1+  0.350  0.262  0.488  0.096
  Li2430  Li1+  0.348  0.540  0.546  0.096
  Li5086  Li1+  0.656  0.042  0.914  0.096
  Li6276  Li1+  0.600  0.823  0.782  0.096
  Li5621  Li1+  0.746  0.535  0.547  0.096
  Li2812  Li1+  0.360  0.654  0.782  0.096
  Li766  Li1+  0.148  0.540  0.346  0.096
  Li5969  Li1+  0.798  0.600  0.651  0.096
  Li4500  Li1+  0.446  0.956  0.150  0.097
  Li2882  Li1+  0.223  0.800  0.014  0.097
  Li1653  Li1+  0.346  0.135  0.147  0.097
  Li4159  Li1+  0.569  0.550  0.989  0.097
  Li3979  Li1+  0.598  0.425  0.450  0.097
  Li623  Li1+  0.148  0.342  0.893  0.097
  Li7433  Li1+  0.806  0.742  0.315  0.097
  Li6719  Li1+  0.969  0.150  0.989  0.097
  Li6626  Li1+  0.856  0.067  0.754  0.097
  Li6997  Li1+  0.850  0.306  0.819  0.097
  Li2091  Li1+  0.329  0.346  0.507  0.098
  Li3775  Li1+  0.569  0.350  0.789  0.098
  Li4991  Li1+  0.769  0.150  0.589  0.098
  Li6699  Li1+  0.929  0.146  0.907  0.098
  Li152  Li1+  0.052  0.169  0.414  0.098
  Li2874  Li1+  0.346  0.673  0.951  0.098
  Li2379  Li1+  0.398  0.425  0.450  0.099
  Li1466  Li1+  0.146  0.873  0.551  0.099
  Li2334  Li1+  0.256  0.442  0.314  0.099
  Li4651  Li1+  0.529  0.946  0.507  0.099
  Li641  Li1+  0.179  0.400  0.017  0.099
  Li186  Li1+  0.146  0.073  0.551  0.099
  Li3951  Li1+  0.548  0.542  0.293  0.099
  Li120  Li1+  0.148  0.050  0.226  0.099
  Li4893  Li1+  0.648  0.198  0.281  0.099
  Li1715  Li1+  0.348  0.165  0.214  0.100
  Li4996  Li1+  0.600  0.023  0.782  0.100
  Li5691  Li1+  0.748  0.404  0.682  0.100
  Li6767  Li1+  0.948  0.342  0.093  0.100
  Li3787  Li1+  0.598  0.225  0.850  0.100
  Li5345  Li1+  0.696  0.267  0.650  0.100
  Li1632  Li1+  0.254  0.052  0.169  0.100
  Li7104  Li1+  0.981  0.440  0.051  0.100
  Li3115  Li1+  0.329  0.946  0.707  0.101
  Li6903  Li1+  0.948  0.381  0.479  0.101
  Li5003  Li1+  0.798  0.025  0.650  0.101
  Li2647  Li1+  0.248  0.662  0.289  0.101
  Li4183  Li1+  0.448  0.662  0.089  0.101
  Li1676  Li1+  0.217  0.042  0.253  0.101
  Li683  Li1+  0.129  0.546  0.107  0.101
  Li7817  Li1+  0.806  0.942  0.515  0.101
  Li1451  Li1+  0.129  0.946  0.507  0.101
  Li4973  Li1+  0.746  0.044  0.514  0.101
  Li782  Li1+  0.198  0.592  0.447  0.101
  Li2231  Li1+  0.348  0.381  0.879  0.101
  Li4364  Li1+  0.417  0.642  0.653  0.101
  Li933  Li1+  0.098  0.500  0.847  0.101
  Li3880  Li1+  0.498  0.510  0.051  0.101
  Li2401  Li1+  0.296  0.467  0.450  0.102
  Li5500  Li1+  0.760  0.454  0.182  0.102
  Li5138  Li1+  0.648  0.208  0.082  0.102
  Li7032  Li1+  0.948  0.250  0.826  0.102
  Li7659  Li1+  0.929  0.746  0.907  0.102
  Li4592  Li1+  0.548  0.950  0.356  0.102
  Li4211  Li1+  0.548  0.765  0.014  0.102
  Li7544  Li1+  0.948  0.650  0.426  0.102
  Li6391  Li1+  0.748  0.981  0.879  0.102
  Li6696  Li1+  0.898  0.110  0.851  0.102
  Li4633  Li1+  0.450  0.831  0.411  0.103
  Li3898  Li1+  0.546  0.473  0.151  0.103
  Li7585  Li1+  0.896  0.667  0.650  0.103
  Li6393  Li1+  0.752  0.844  0.869  0.103
  Li3379  Li1+  0.548  0.165  0.414  0.103
  Li7158  Li1+  0.952  0.546  0.340  0.103
  Li2693  Li1+  0.248  0.642  0.528  0.103
  Li980  Li1+  0.046  0.756  0.150  0.103
  Li3332  Li1+  0.400  0.023  0.582  0.103
  Li2369  Li1+  0.379  0.400  0.417  0.104
  Li1966  Li1+  0.350  0.279  0.014  0.104
  Li37  Li1+  0.098  0.100  0.047  0.104
  Li3253  Li1+  0.546  0.135  0.147  0.104
  Li3929  Li1+  0.450  0.431  0.211  0.104
  Li2164  Li1+  0.358  0.221  0.749  0.104
  Li5140  Li1+  0.646  0.356  0.150  0.104
  Li2257  Li1+  0.398  0.400  0.051  0.105
  Li1100  Li1+  0.017  0.642  0.453  0.105
  Li940  Li1+  0.150  0.462  0.888  0.105
  Li2298  Li1+  0.346  0.473  0.151  0.105
  Li3674  Li1+  0.452  0.256  0.432  0.105
  Li3862  Li1+  0.446  0.446  0.072  0.105
  Li2556  Li1+  0.360  0.454  0.982  0.105
  Li3346  Li1+  0.448  0.008  0.482  0.105
  Li651  Li1+  0.198  0.425  0.050  0.105
  Li2596  Li1+  0.294  0.700  0.149  0.105
  Li1986  Li1+  0.223  0.200  0.214  0.105
  Li2071  Li1+  0.248  0.262  0.489  0.106
  Li3406  Li1+  0.598  0.192  0.647  0.106
  Li4779  Li1+  0.529  0.946  0.907  0.106
  Li395  Li1+  0.198  0.225  0.250  0.106
  Li491  Li1+  0.129  0.346  0.507  0.106
  Li635  Li1+  0.148  0.204  0.882  0.106
  Li2763  Li1+  0.398  0.625  0.650  0.106
  Li5680  Li1+  0.748  0.550  0.756  0.106
  Li508  Li1+  0.160  0.254  0.582  0.106
  Li3496  Li1+  0.498  0.110  0.851  0.106
  Li7721  Li1+  0.902  0.875  0.115  0.107
  Li2196  Li1+  0.246  0.356  0.950  0.107
  Li2590  Li1+  0.256  0.642  0.114  0.107
  Li6292  Li1+  0.646  0.956  0.750  0.107
  Li3860  Li1+  0.446  0.556  0.150  0.107
  Li7829  Li1+  0.850  0.906  0.419  0.107
  Li5011  Li1+  0.650  0.140  0.694  0.107
  Li6858  Li1+  0.829  0.350  0.589  0.107
  Li7650  Li1+  0.856  0.667  0.954  0.107
  Li5371  Li1+  0.748  0.204  0.682  0.107
  Li2341  Li1+  0.298  0.500  0.247  0.108
  Li557  Li1+  0.146  0.244  0.714  0.108
  Li5613  Li1+  0.746  0.444  0.514  0.108
  Li1525  Li1+  0.146  0.935  0.747  0.108
  Li7314  Li1+  0.848  0.408  0.882  0.108
  Li7932  Li1+  0.960  0.854  0.782  0.108
  Li5591  Li1+  0.648  0.462  0.489  0.108
  Li253  Li1+  0.150  0.117  0.618  0.108
  Li6450  Li1+  0.948  0.037  0.015  0.109
  Li5611  Li1+  0.729  0.546  0.507  0.109
  Li7277  Li1+  0.946  0.444  0.714  0.109
  Li1855  Li1+  0.369  0.150  0.789  0.109
  Li3629  Li1+  0.546  0.244  0.314  0.109
  Li4073  Li1+  0.502  0.475  0.715  0.109
  Li7596  Li1+  0.950  0.662  0.688  0.109
  Li6095  Li1+  0.642  0.854  0.183  0.109
  Li3499  Li1+  0.529  0.146  0.907  0.109
  Li2135  Li1+  0.248  0.262  0.689  0.109
  Li4787  Li1+  0.548  0.965  0.814  0.109
  Li4574  Li1+  0.456  0.842  0.314  0.109
  Li2674  Li1+  0.348  0.637  0.215  0.109
  Li7550  Li1+  0.948  0.740  0.546  0.109
  Li7133  Li1+  0.848  0.598  0.281  0.110
  Li1817  Li1+  0.250  0.031  0.611  0.110
  Li2476  Li1+  0.350  0.462  0.688  0.110
  Li7386  Li1+  0.852  0.656  0.032  0.110
  Li3816  Li1+  0.498  0.310  0.851  0.110
  Li892  Li1+  0.160  0.454  0.782  0.110
  Li4043  Li1+  0.598  0.425  0.650  0.110
  Li1162  Li1+  0.029  0.750  0.789  0.110
  Li6270  Li1+  0.748  0.940  0.546  0.110
  Li2111  Li1+  0.369  0.350  0.589  0.110
  Li6866  Li1+  0.848  0.208  0.482  0.110
  Li6777  Li1+  0.952  0.244  0.069  0.110
  Li4244  Li1+  0.446  0.756  0.350  0.110
  Li3794  Li1+  0.448  0.208  0.882  0.110
  Li402  Li1+  0.048  0.208  0.282  0.111
  Li2352  Li1+  0.348  0.550  0.356  0.111
  Li3038  Li1+  0.256  0.842  0.514  0.111
  Li5207  Li1+  0.648  0.262  0.289  0.111
  Li5385  Li1+  0.606  0.342  0.915  0.111
  Li7567  Li1+  0.842  0.654  0.783  0.111
  Li4617  Li1+  0.406  0.942  0.515  0.111
  Li6005  Li1+  0.746  0.735  0.747  0.111
  Li2190  Li1+  0.398  0.392  0.847  0.112
  Li6226  Li1+  0.648  0.808  0.482  0.112
  Li6676  Li1+  0.846  0.156  0.950  0.112
  Li7797  Li1+  0.946  0.935  0.347  0.112
  Li3200  Li1+  0.381  0.840  0.851  0.112
  Li3318  Li1+  0.552  0.146  0.340  0.112
  Li1723  Li1+  0.348  0.004  0.282  0.112
  Li2527  Li1+  0.250  0.510  0.821  0.112
  Li5093  Li1+  0.698  0.100  0.847  0.112
  Li3737  Li1+  0.450  0.231  0.611  0.113
  Li2388  Li1+  0.246  0.556  0.550  0.113
  Li4949  Li1+  0.650  0.106  0.419  0.113
  Li6655  Li1+  0.969  0.150  0.789  0.113
  Li5330  Li1+  0.648  0.208  0.682  0.113
  Li3225  Li1+  0.450  0.031  0.011  0.114
  Li4333  Li1+  0.546  0.644  0.514  0.114
  Li5154  Li1+  0.656  0.267  0.154  0.114
  Li7965  Li1+  0.848  0.998  0.881  0.114
  Li2558  Li1+  0.348  0.540  0.946  0.114
  Li6086  Li1+  0.754  0.844  0.122  0.115
  Li5021  Li1+  0.648  0.198  0.681  0.115
  Li1637  Li1+  0.298  0.100  0.047  0.115
  Li2834  Li1+  0.248  0.608  0.882  0.115
  Li1242  Li1+  0.052  0.656  0.832  0.115
  Li2742  Li1+  0.352  0.746  0.540  0.115
  Li2344  Li1+  0.298  0.510  0.251  0.115
  Li7980  Li1+  0.950  0.862  0.888  0.115
  Li3972  Li1+  0.400  0.423  0.582  0.116
  Li4309  Li1+  0.450  0.706  0.419  0.116
  Li2017  Li1+  0.296  0.267  0.250  0.116
  Li3322  Li1+  0.546  0.073  0.351  0.116
  Li7034  Li1+  0.946  0.273  0.951  0.116
  Li1504  Li1+  0.054  0.852  0.769  0.116
  Li3077  Li1+  0.248  0.842  0.728  0.116
  Li2359  Li1+  0.348  0.581  0.279  0.116
  Li1156  Li1+  -0.000  0.623  0.782  0.116
  Li2614  Li1+  0.352  0.746  0.140  0.116
  Li7371  Li1+  0.998  0.625  0.050  0.116
  Li330  Li1+  0.029  0.350  0.189  0.116
  Li3176  Li1+  0.298  0.910  0.851  0.116
  Li2862  Li1+  0.350  0.679  0.814  0.116
  Li6802  Li1+  0.848  0.208  0.282  0.116
  Li3454  Li1+  0.548  0.140  0.746  0.117
  Li574  Li1+  0.148  0.340  0.746  0.117
  Li606  Li1+  0.056  0.242  0.914  0.117
  Li7083  Li1+  0.929  0.546  0.107  0.117
  Li3129  Li1+  0.352  0.844  0.669  0.117
  Li2974  Li1+  0.256  0.842  0.314  0.117
  Li7085  Li1+  0.946  0.444  0.114  0.117
  Li6857  Li1+  0.806  0.342  0.515  0.117
  Li4426  Li1+  0.429  0.750  0.989  0.117
  Li2311  Li1+  0.346  0.548  0.247  0.117
  Li885  Li1+  0.146  0.535  0.747  0.117
  Li964  Li1+  -0.000  0.623  0.182  0.118
  Li7403  Li1+  0.929  0.746  0.107  0.118
  Li590  Li1+  0.198  0.392  0.847  0.118
  Li7295  Li1+  0.969  0.550  0.789  0.118
  Li830  Li1+  0.148  0.540  0.546  0.119
  Li5700  Li1+  0.600  0.423  0.982  0.119
  Li2914  Li1+  0.256  0.867  0.154  0.119
  Li3786  Li1+  0.429  0.350  0.989  0.119
  Li3766  Li1+  0.552  0.346  0.740  0.119
  Li6326  Li1+  0.752  0.946  0.740  0.120
  Li680  Li1+  0.098  0.510  0.051  0.120
  Li2297  Li1+  0.352  0.444  0.069  0.120
  Li7063  Li1+  0.848  0.462  0.089  0.120
  Li3230  Li1+  0.456  0.042  0.114  0.120
  Li2828  Li1+  0.217  0.642  0.853  0.120
  Li1174  Li1+  0.046  0.646  0.672  0.120
  Li946  Li1+  0.148  0.437  0.815  0.120
  Li206  Li1+  0.198  0.192  0.647  0.120
  Li1302  Li1+  0.046  0.846  0.072  0.120
  Li1233  Li1+  0.198  0.600  0.851  0.121
  Li7050  Li1+  0.829  0.550  0.189  0.121
  Li7870  Li1+  0.948  0.940  0.546  0.121
  Li608  Li1+  0.054  0.252  0.969  0.121
  Li435  Li1+  0.148  0.365  0.214  0.121
  Li6012  Li1+  0.760  0.654  0.782  0.121
  Li3516  Li1+  0.560  0.054  0.982  0.121
  Li4825  Li1+  0.650  0.031  0.011  0.121
  Li6702  Li1+  0.950  0.079  0.814  0.121
  Li3063  Li1+  0.348  0.981  0.479  0.121
  Li5810  Li1+  0.748  0.638  0.015  0.121
  Li3936  Li1+  0.454  0.452  0.369  0.122
  Li5811  Li1+  0.748  0.765  0.014  0.122
  Li3412  Li1+  0.446  0.156  0.750  0.122
  Li7603  Li1+  0.948  0.765  0.614  0.122
  Li4529  Li1+  0.550  0.952  0.003  0.122
  Li6839  Li1+  0.948  0.381  0.279  0.123
  Li7265  Li1+  0.896  0.467  0.650  0.123
  Li364  Li1+  0.150  0.262  0.088  0.123
  Li754  Li1+  0.148  0.437  0.215  0.123
  Li6827  Li1+  0.929  0.346  0.307  0.123
  Li4316  Li1+  0.450  0.750  0.556  0.123
  Li3102  Li1+  0.256  0.842  0.714  0.123
  Li1056  Li1+  0.054  0.652  0.369  0.123
  Li7312  Li1+  0.998  0.498  0.986  0.124
  Li2358  Li1+  0.352  0.546  0.340  0.124
  Li2753  Li1+  0.379  0.600  0.617  0.124
  Li4032  Li1+  0.581  0.440  0.451  0.124
  Li922  Li1+  0.052  0.456  0.832  0.124
  Li6912  Li1+  0.981  0.240  0.451  0.125
  Li3738  Li1+  0.452  0.256  0.632  0.125
  Li6074  Li1+  0.746  0.673  0.951  0.125
  Li6917  Li1+  0.848  0.242  0.728  0.125
  Li732  Li1+  0.050  0.550  0.356  0.125
  Li5784  Li1+  0.652  0.769  0.014  0.125
  Li3637  Li1+  0.546  0.335  0.347  0.126
  Li3833  Li1+  0.552  0.244  0.869  0.126
  Li2845  Li1+  0.248  0.798  0.881  0.126
  Li5052  Li1+  0.760  0.054  0.782  0.126
  Li7912  Li1+  0.898  0.910  0.651  0.126
  Li7566  Li1+  0.998  0.792  0.647  0.126
  Li5216  Li1+  0.654  0.252  0.369  0.127
  Li7630  Li1+  0.998  0.792  0.847  0.127
  Li2263  Li1+  0.248  0.462  0.089  0.127
  Li958  Li1+  0.148  0.540  0.946  0.127
  Li3204  Li1+  0.400  0.023  0.182  0.127
  Li554  Li1+  0.150  0.254  0.771  0.127
  Li66  Li1+  0.023  -0.000  0.214  0.127
  Li5822  Li1+  0.748  0.740  0.146  0.127
  Li2571  Li1+  0.398  0.625  0.050  0.127
  Li3828  Li1+  0.558  0.221  0.949  0.127
  Li6515  Li1+  0.948  0.165  0.214  0.127
  Li2613  Li1+  0.346  0.735  0.147  0.127
  Li4746  Li1+  0.429  0.950  0.989  0.128
  Li7614  Li1+  0.948  0.740  0.746  0.128
  Li7658  Li1+  0.950  0.654  0.971  0.128
  Li3627  Li1+  0.529  0.346  0.307  0.128
  Li977  Li1+  0.198  0.600  0.051  0.128
  Li171  Li1+  0.129  0.146  0.507  0.128
  Li4080  Li1+  0.548  0.550  0.756  0.129
  Li934  Li1+  0.100  0.596  0.913  0.129
  Li3288  Li1+  0.452  0.169  0.214  0.129
  Li2277  Li1+  0.298  0.500  0.047  0.129
  Li2931  Li1+  0.348  0.965  0.014  0.129
  Li6347  Li1+  0.798  0.825  0.850  0.129
  Li5089  Li1+  0.696  0.067  0.850  0.129
  Li4192  Li1+  0.454  0.652  0.169  0.129
  Li4824  Li1+  0.652  0.169  0.014  0.129
  Li6654  Li1+  0.948  0.140  0.746  0.129
  Li6204  Li1+  0.760  0.854  0.382  0.129
  Li5308  Li1+  0.760  0.254  0.582  0.130
  Li4406  Li1+  0.552  0.746  0.740  0.130
  Li7422  Li1+  0.948  0.740  0.146  0.130
  Li5047  Li1+  0.748  0.181  0.679  0.130
  Li6134  Li1+  0.752  0.946  0.140  0.130
  Li6908  Li1+  0.960  0.254  0.582  0.130
  Li613  Li1+  0.098  0.300  0.847  0.130
  Li4007  Li1+  0.494  0.552  0.581  0.130
  Li3660  Li1+  0.417  0.242  0.453  0.131
  Li7480  Li1+  0.948  0.650  0.226  0.131
  Li7978  Li1+  0.950  0.854  0.971  0.131
  Li4785  Li1+  0.550  0.952  0.803  0.131
  Li3481  Li1+  0.450  0.031  0.811  0.131
  Li3616  Li1+  0.454  0.252  0.369  0.131
  Li6109  Li1+  0.648  0.998  0.081  0.131
  Li1044  Li1+  0.046  0.756  0.350  0.131
  Li1786  Li1+  0.346  0.073  0.551  0.132
  Li3342  Li1+  0.598  0.192  0.447  0.132
  Li4110  Li1+  0.598  0.592  0.847  0.132
  Li4818  Li1+  0.648  0.008  0.082  0.132
  Li4561  Li1+  0.598  0.800  0.251  0.133
  Li1373  Li1+  0.048  0.998  0.281  0.133
  Li6260  Li1+  0.758  0.821  0.549  0.133
  Li3098  Li1+  0.252  0.856  0.632  0.133
  Li4948  Li1+  0.646  0.156  0.550  0.133
  Li4416  Li1+  0.581  0.640  0.651  0.133
  Li809  Li1+  0.102  0.475  0.515  0.133
  Li2213  Li1+  0.298  0.300  0.847  0.134
  Li961  Li1+  0.179  0.600  0.017  0.134
  Li5954  Li1+  0.623  0.600  0.614  0.134
  Li6332  Li1+  0.760  0.854  0.782  0.134
  Li5616  Li1+  0.748  0.550  0.556  0.134
  Li3617  Li1+  0.496  0.267  0.250  0.134
  Li308  Li1+  0.158  0.021  0.949  0.134
  Li5537  Li1+  0.696  0.467  0.250  0.135
  Li1108  Li1+  0.046  0.756  0.550  0.135
  Li6414  Li1+  0.998  0.192  0.047  0.135
  Li4556  Li1+  0.417  0.842  0.253  0.135
  Li637  Li1+  0.150  0.317  0.818  0.135
  Li6829  Li1+  0.946  0.244  0.314  0.135
  Li301  Li1+  0.146  0.044  0.914  0.135
  Li6084  Li1+  0.600  0.823  0.182  0.135
  Li5571  Li1+  0.604  0.592  0.550  0.135
  Li5898  Li1+  0.629  0.750  0.589  0.136
  Li3545  Li1+  0.450  0.231  0.011  0.136
  Li2633  Li1+  0.206  0.742  0.315  0.136
  Li4141  Li1+  0.546  0.444  0.914  0.136
  Li2966  Li1+  0.246  0.846  0.272  0.137
  Li3353  Li1+  0.450  0.031  0.411  0.137
  Li1743  Li1+  0.242  0.054  0.583  0.137
  Li7835  Li1+  0.848  0.952  0.401  0.137
  Li1589  Li1+  0.146  0.935  0.947  0.137
  Li501  Li1+  0.146  0.335  0.547  0.137
  Li779  Li1+  0.198  0.425  0.450  0.137
  Li6972  Li1+  0.960  0.254  0.782  0.137
  Li2480  Li1+  0.348  0.550  0.756  0.137
  Li1915  Li1+  0.348  0.004  0.882  0.137
  Li3902  Li1+  0.548  0.540  0.146  0.138
  Li5950  Li1+  0.748  0.740  0.546  0.138
  Li7557  Li1+  0.848  0.642  0.728  0.138
  Li3742  Li1+  0.456  0.242  0.714  0.138
  Li5843  Li1+  0.650  0.740  0.294  0.138
  Li278  Li1+  0.046  0.046  0.872  0.138
  Li5793  Li1+  0.696  0.667  0.050  0.138
  Li4065  Li1+  0.496  0.467  0.650  0.138
  Li2901  Li1+  0.250  0.906  0.019  0.138
  Li5129  Li1+  0.606  0.342  0.115  0.139
  Li6954  Li1+  0.950  0.254  0.771  0.139
  Li3441  Li1+  0.550  0.152  0.603  0.139
  Li7991  Li1+  0.948  0.981  0.879  0.139
  Li7208  Li1+  0.898  0.510  0.451  0.139
  Li7956  Li1+  0.846  0.956  0.950  0.139
  Li2900  Li1+  0.246  0.956  0.150  0.139
  Li632  Li1+  0.148  0.250  0.826  0.139
  Li3381  Li1+  0.546  0.135  0.547  0.139
  Li3264  Li1+  0.581  0.040  0.051  0.139
  Li5051  Li1+  0.748  0.004  0.682  0.140
  Li5387  Li1+  0.798  0.225  0.850  0.140
  Li6921  Li1+  0.806  0.342  0.715  0.140
  Li7810  Li1+  0.823  0.800  0.414  0.140
  Li686  Li1+  0.150  0.479  0.014  0.140
  Li2226  Li1+  0.348  0.237  0.815  0.140
  Li791  Li1+  0.048  0.462  0.489  0.141
  Li6952  Li1+  0.898  0.310  0.651  0.141
  Li3092  Li1+  0.246  0.956  0.750  0.141
  Li2559  Li1+  0.369  0.550  0.989  0.141
  Li4150  Li1+  0.552  0.546  0.940  0.141
  Li4121  Li1+  0.450  0.431  0.811  0.141
  Li6588  Li1+  0.960  0.054  0.582  0.141
  Li2081  Li1+  0.296  0.267  0.450  0.141
  Li2457  Li1+  0.250  0.431  0.611  0.141
  Li6922  Li1+  0.829  0.350  0.789  0.141
  Li2121  Li1+  0.206  0.342  0.715  0.141
  Li2654  Li1+  0.256  0.642  0.314  0.141
  Li1650  Li1+  0.348  0.037  0.015  0.142
  Li2047  Li1+  0.369  0.350  0.389  0.142
  Li1364  Li1+  0.046  0.956  0.350  0.142
  Li3560  Li1+  0.498  0.310  0.051  0.142
  Li7759  Li1+  0.842  0.854  0.383  0.142
  Li7322  Li1+  0.852  0.456  0.832  0.143
  Li7498  Li1+  0.829  0.750  0.589  0.143
  Li6901  Li1+  0.946  0.335  0.547  0.143
  Li3004  Li1+  0.360  0.854  0.382  0.143
  Li6993  Li1+  0.998  0.200  0.851  0.143
  Li1909  Li1+  0.346  0.135  0.947  0.143
  Li7194  Li1+  0.852  0.456  0.432  0.143
  Li4810  Li1+  0.629  0.150  0.189  0.143
  Li316  Li1+  0.160  0.054  0.982  0.143
  Li5850  Li1+  0.652  0.656  0.232  0.144
  Li342  Li1+  0.046  0.246  0.072  0.144
  Li4926  Li1+  0.748  0.140  0.346  0.144
  Li5326  Li1+  0.798  0.392  0.647  0.144
  Li460  Li1+  0.017  0.242  0.453  0.144
  Li2544  Li1+  0.348  0.550  0.956  0.144
  Li7044  Li1+  0.800  0.423  0.182  0.144
  Li4019  Li1+  0.548  0.565  0.414  0.144
  Li110  Li1+  0.150  0.079  0.214  0.145
  Li3154  Li1+  0.248  0.808  0.882  0.145
  Li1264  Li1+  0.148  0.750  0.956  0.145
  Li7755  Li1+  0.998  0.825  0.250  0.145
  Li1848  Li1+  0.348  0.050  0.626  0.145
  Li4540  Li1+  0.560  0.854  0.182  0.145
  Li517  Li1+  0.048  0.242  0.728  0.145
  Li3165  Li1+  0.248  0.998  0.881  0.146
  Li78  Li1+  0.198  0.192  0.247  0.146
  Li3832  Li1+  0.548  0.250  0.826  0.146
  Li3134  Li1+  0.348  0.940  0.746  0.146
  Li3240  Li1+  0.498  0.110  0.051  0.146
  Li6504  Li1+  0.898  0.110  0.251  0.146
  Li4912  Li1+  0.748  0.150  0.356  0.146
  Li2687  Li1+  0.369  0.750  0.389  0.146
  Li3662  Li1+  0.598  0.392  0.447  0.147
  Li6580  Li1+  0.958  0.021  0.549  0.147
  Li7152  Li1+  0.948  0.550  0.356  0.147
  Li1106  Li1+  0.048  0.608  0.482  0.148
  Li1516  Li1+  0.150  0.862  0.688  0.148
  Li1005  Li1+  0.146  0.644  0.114  0.148
  Li4076  Li1+  0.550  0.462  0.688  0.148
  Li1693  Li1+  0.248  0.198  0.281  0.148
  Li4628  Li1+  0.446  0.956  0.550  0.149
  Li6965  Li1+  0.946  0.335  0.747  0.149
  Li7717  Li1+  0.898  0.900  0.047  0.149
  Li6860  Li1+  0.817  0.242  0.453  0.149
  Li562  Li1+  0.148  0.237  0.615  0.149
  Li245  Li1+  0.146  0.135  0.747  0.149
  Li6929  Li1+  0.998  0.200  0.651  0.149
  Li7448  Li1+  0.852  0.769  0.214  0.149
  Li1753  Li1+  0.250  0.031  0.411  0.149
  Li819  Li1+  0.148  0.565  0.414  0.149
  Li7612  Li1+  0.960  0.654  0.782  0.149
  Li4277  Li1+  0.546  0.735  0.347  0.149
  Li2617  Li1+  0.352  0.644  0.069  0.149
  Li2160  Li1+  0.348  0.350  0.756  0.150
  Li2954  Li1+  0.229  0.950  0.389  0.150
  Li2015  Li1+  0.250  0.310  0.221  0.150
  Li1846  Li1+  0.352  0.146  0.740  0.150
  Li1840  Li1+  0.348  0.150  0.756  0.150
  Li370  Li1+  0.148  0.238  0.015  0.150
  Li3437  Li1+  0.546  0.044  0.714  0.150
  Li2032  Li1+  0.348  0.350  0.356  0.150
  Li323  Li1+  0.004  0.392  0.150  0.150
  Li2123  Li1+  0.398  0.225  0.650  0.151
  Li5774  Li1+  0.798  0.792  0.047  0.151
  Li1445  Li1+  0.098  0.900  0.447  0.151
  Li5634  Li1+  0.623  0.400  0.614  0.151
  Li2721  Li1+  0.296  0.667  0.450  0.151
  Li374  Li1+  0.152  0.346  0.140  0.151
  Li805  Li1+  0.098  0.500  0.447  0.151
  Li2998  Li1+  0.352  0.946  0.340  0.151
  Li60  Li1+  0.160  0.054  0.182  0.151
  Li6177  Li1+  0.696  0.867  0.250  0.151
  Li786  Li1+  0.048  0.408  0.482  0.151
  Li2411  Li1+  0.329  0.546  0.507  0.152
  Li7746  Li1+  0.823  0.800  0.214  0.152
  Li1831  Li1+  0.294  0.152  0.781  0.152
  Li2398  Li1+  0.256  0.442  0.514  0.152
  Li4385  Li1+  0.496  0.667  0.650  0.152
  Li2393  Li1+  0.250  0.431  0.411  0.152
  Li2653  Li1+  0.248  0.798  0.281  0.152
  Li2831  Li1+  0.242  0.654  0.983  0.152
  Li3913  Li1+  0.406  0.542  0.315  0.152
  Li2619  Li1+  0.348  0.604  0.082  0.153
  Li445  Li1+  0.150  0.317  0.218  0.153
  Li6651  Li1+  0.948  0.004  0.682  0.153
  Li4025  Li1+  0.552  0.444  0.469  0.153
  Li6268  Li1+  0.760  0.854  0.582  0.153
  Li1465  Li1+  0.152  0.844  0.469  0.153
  Li7505  Li1+  0.998  0.600  0.451  0.153
  Li3957  Li1+  0.546  0.535  0.347  0.153
  Li3393  Li1+  0.579  -0.000  0.617  0.153
  Li5719  Li1+  0.648  0.462  0.889  0.154
  Li4514  Li1+  0.456  0.867  0.154  0.154
  Li6966  Li1+  0.952  0.346  0.740  0.154
  Li2519  Li1+  0.248  0.462  0.889  0.154
  Li1822  Li1+  0.256  0.042  0.714  0.154
  Li6113  Li1+  0.696  0.867  0.050  0.154
  Li3840  Li1+  0.581  0.240  0.851  0.155
  Li5939  Li1+  0.748  0.765  0.414  0.155
  Li4290  Li1+  0.423  0.600  0.414  0.155
  Li1215  Li1+  0.169  0.750  0.789  0.155
  Li4981  Li1+  0.746  0.135  0.547  0.155
  Li7326  Li1+  0.856  0.442  0.914  0.155
  Li2315  Li1+  0.398  0.425  0.250  0.155
  Li1203  Li1+  0.148  0.765  0.614  0.155
  Li63  Li1+  0.169  0.150  0.189  0.156
  Li802  Li1+  0.056  0.467  0.554  0.156
  Li6712  Li1+  0.948  0.050  0.826  0.156
  Li3250  Li1+  0.548  0.037  0.015  0.156
  Li5570  Li1+  0.623  0.400  0.414  0.157
  Li1136  Li1+  0.148  0.750  0.556  0.157
  Li7188  Li1+  0.846  0.556  0.550  0.157
  Li7661  Li1+  0.946  0.644  0.914  0.157
  Li2796  Li1+  0.350  0.662  0.688  0.157
  Li3865  Li1+  0.450  0.431  0.011  0.157
  Li5911  Li1+  0.648  0.662  0.489  0.157
  Li2569  Li1+  0.206  0.742  0.115  0.157
  Li747  Li1+  0.129  0.546  0.307  0.158
  Li1710  Li1+  0.350  0.079  0.214  0.158
  Li2063  Li1+  0.242  0.254  0.583  0.158
  Li2603  Li1+  0.329  0.746  0.107  0.158
  Li3188  Li1+  0.358  0.821  0.949  0.158
  Li1597  Li1+  0.150  0.917  0.818  0.158
  Li427  Li1+  0.129  0.346  0.307  0.158
  Li916  Li1+  0.046  0.556  0.950  0.158
  Li7806  Li1+  0.948  0.940  0.346  0.158
  Li5567  Li1+  0.769  0.550  0.389  0.158
  Li4100  Li1+  0.400  0.423  0.982  0.158
  Li3990  Li1+  0.446  0.446  0.472  0.159
  Li1965  Li1+  0.346  0.244  0.114  0.159
  Li5486  Li1+  0.750  0.479  0.014  0.159
  Li1590  Li1+  0.152  0.946  0.940  0.159
  Li1615  Li1+  0.242  0.054  0.183  0.160
  Li2792  Li1+  0.298  0.710  0.651  0.160
  Li4796  Li1+  0.560  0.854  0.982  0.160
  Li7141  Li1+  0.898  0.500  0.247  0.160
  Li2174  Li1+  0.348  0.340  0.746  0.160
  Li5430  Li1+  0.752  0.346  0.940  0.160
  Li139  Li1+  0.198  0.025  0.450  0.160
  Li2802  Li1+  0.348  0.637  0.615  0.160
  Li4534  Li1+  0.552  0.946  0.140  0.160
  Li6911  Li1+  0.969  0.350  0.589  0.160
  Li3440  Li1+  0.548  0.150  0.756  0.160
  Li4199  Li1+  0.494  0.752  0.181  0.161
  Li5758  Li1+  0.748  0.540  0.946  0.161
  Li5970  Li1+  0.648  0.608  0.682  0.161
  Li4832  Li1+  0.654  0.052  0.169  0.161
  Li6294  Li1+  0.646  0.846  0.672  0.161
  Li5554  Li1+  0.748  0.437  0.215  0.161
  Li5612  Li1+  0.750  0.462  0.488  0.161
  Li3327  Li1+  0.569  0.150  0.389  0.161
  Li5237  Li1+  0.746  0.335  0.347  0.162
  Li6914  Li1+  0.823  0.200  0.614  0.162
  Li6686  Li1+  0.856  0.042  0.914  0.162
  Li2609  Li1+  0.350  0.752  0.003  0.162
  Li7531  Li1+  0.929  0.746  0.507  0.162
  Li4907  Li1+  0.729  0.146  0.307  0.163
  Li6701  Li1+  0.946  0.044  0.914  0.163
  Li4318  Li1+  0.456  0.642  0.514  0.163
  Li5977  Li1+  0.650  0.631  0.611  0.163
  Li4791  Li1+  0.548  0.981  0.879  0.163
  Li1762  Li1+  0.256  0.067  0.554  0.163
  Li813  Li1+  0.146  0.444  0.514  0.163
  Li1323  Li1+  0.129  0.946  0.107  0.163
  Li6282  Li1+  0.629  0.950  0.789  0.163
  Li7948  Li1+  0.817  0.842  0.853  0.163
  Li1240  Li1+  0.052  0.769  0.814  0.164
  Li1500  Li1+  0.050  0.950  0.756  0.164
  Li148  Li1+  0.046  0.156  0.550  0.164
  Li6454  Li1+  0.952  0.146  0.140  0.164
  Li6710  Li1+  0.952  0.146  0.940  0.165
  Li565  Li1+  0.146  0.335  0.747  0.165
  Li7604  Li1+  0.958  0.621  0.749  0.165
  Li2244  Li1+  0.200  0.423  0.182  0.165
  Li6258  Li1+  0.748  0.837  0.415  0.165
  Li2890  Li1+  0.229  0.950  0.189  0.165
  Li3500  Li1+  0.550  0.062  0.888  0.165
  Li6071  Li1+  0.748  0.781  0.879  0.165
  Li6474  Li1+  0.829  0.150  0.389  0.166
  Li4055  Li1+  0.448  0.462  0.689  0.166
  Li3644  Li1+  0.560  0.254  0.382  0.166
  Li3571  Li1+  0.548  0.365  0.014  0.166
  Li7445  Li1+  0.850  0.706  0.219  0.166
  Li2784  Li1+  0.254  0.652  0.769  0.166
  Li1623  Li1+  0.248  0.062  0.089  0.167
  Li4499  Li1+  0.450  0.940  0.094  0.167
  Li7090  Li1+  0.948  0.438  0.015  0.167
  Li6195  Li1+  0.748  0.965  0.214  0.167
  Li7778  Li1+  0.856  0.867  0.354  0.167
  Li384  Li1+  0.181  0.240  0.051  0.167
  Li741  Li1+  0.098  0.500  0.247  0.167
  Li812  Li1+  0.150  0.462  0.488  0.168
  Li6184  Li1+  0.698  0.910  0.251  0.168
  Li2330  Li1+  0.252  0.456  0.232  0.168
  Li702  Li1+  0.148  0.540  0.146  0.168
  Li3274  Li1+  0.429  0.150  0.389  0.168
  Li536  Li1+  0.052  0.369  0.614  0.168
  Li2050  Li1+  0.223  0.200  0.414  0.169
  Li5373  Li1+  0.750  0.317  0.618  0.169
  Li2987  Li1+  0.329  0.946  0.307  0.169
  Li2582  Li1+  0.246  0.646  0.072  0.169
  Li6430  Li1+  0.856  0.042  0.114  0.170
  Li2690  Li1+  0.223  0.600  0.414  0.170
  Li5117  Li1+  0.750  0.117  0.818  0.170
  Li3178  Li1+  0.350  0.854  0.971  0.170
  Li4112  Li1+  0.598  0.498  0.986  0.170
  Li534  Li1+  0.046  0.246  0.672  0.170
  Li5443  Li1+  0.604  0.592  0.150  0.170
  Li7679  Li1+  0.969  0.750  0.989  0.170
  Li4111  Li1+  0.442  0.454  0.983  0.170
  Li7374  Li1+  0.998  0.792  0.047  0.170
  Li6635  Li1+  0.929  0.146  0.707  0.170
  Li5195  Li1+  0.798  0.225  0.250  0.171
  Li6637  Li1+  0.946  0.044  0.714  0.171
  Li694  Li1+  0.152  0.546  0.140  0.171
  Li5454  Li1+  0.798  0.592  0.047  0.171
  Li7294  Li1+  0.948  0.540  0.746  0.171
  Li7871  Li1+  0.969  0.950  0.589  0.171
  Li5281  Li1+  0.696  0.267  0.450  0.171
  Li2990  Li1+  0.350  0.879  0.214  0.171
  Li7299  Li1+  0.804  0.592  0.950  0.172
  Li2806  Li1+  0.352  0.746  0.740  0.172
  Li6066  Li1+  0.748  0.637  0.815  0.172
  Li5081  Li1+  0.650  0.031  0.811  0.172
  Li5113  Li1+  0.752  0.044  0.869  0.172
  Li7205  Li1+  0.898  0.500  0.447  0.172
  Li7700  Li1+  0.846  0.956  0.150  0.173
  Li3944  Li1+  0.498  0.510  0.251  0.173
  Li6271  Li1+  0.769  0.950  0.589  0.173
  Li2149  Li1+  0.298  0.300  0.647  0.173
  Li6760  Li1+  0.898  0.310  0.051  0.173
  Li5408  Li1+  0.654  0.252  0.969  0.173
  Li4645  Li1+  0.498  0.900  0.447  0.173
  Li3588  Li1+  0.400  0.223  0.382  0.173
  Li161  Li1+  0.096  0.067  0.450  0.173
  Li4341  Li1+  0.546  0.735  0.547  0.173
  Li4469  Li1+  0.546  0.735  0.947  0.174
  Li6606  Li1+  0.998  0.192  0.647  0.174
  Li51  Li1+  0.148  0.165  0.014  0.174
  Li1291  Li1+  0.198  0.825  0.050  0.174
  Li2073  Li1+  0.250  0.231  0.411  0.174
  Li3802  Li1+  0.452  0.256  0.832  0.174
  Li300  Li1+  0.150  0.062  0.888  0.174
  Li5913  Li1+  0.650  0.631  0.411  0.174
  Li4447  Li1+  0.450  0.710  0.821  0.175
  Li7042  Li1+  0.823  0.400  0.014  0.175
  Li3153  Li1+  0.398  0.800  0.851  0.175
  Li1910  Li1+  0.352  0.146  0.940  0.175
  Li6501  Li1+  0.898  0.100  0.247  0.175
  Li806  Li1+  0.100  0.596  0.513  0.176
  Li4106  Li1+  0.429  0.550  0.989  0.176
  Li4285  Li1+  0.550  0.717  0.218  0.176
  Li622  Li1+  0.150  0.279  0.814  0.176
  Li443  Li1+  0.148  0.204  0.282  0.176
  Li7438  Li1+  0.998  0.792  0.247  0.176
  Li6235  Li1+  0.648  0.952  0.401  0.176
  Li50  Li1+  0.148  0.037  0.015  0.177
  Li3287  Li1+  0.448  0.062  0.289  0.177
  Li5058  Li1+  0.623  -0.000  0.814  0.177
  Li6642  Li1+  0.948  0.037  0.615  0.177
  Li1482  Li1+  0.029  0.950  0.789  0.177
  Li772  Li1+  -0.000  0.423  0.582  0.177
  Li6021  Li1+  0.648  0.642  0.928  0.177
  Li5335  Li1+  0.648  0.262  0.689  0.178
  Li5920  Li1+  0.654  0.652  0.569  0.178
  Li1807  Li1+  0.242  0.054  0.783  0.178
  Li3125  Li1+  0.346  0.935  0.747  0.178
  Li3116  Li1+  0.350  0.862  0.688  0.178
  Li2203  Li1+  0.248  0.352  0.801  0.178
  Li7992  Li1+  0.948  0.850  0.826  0.178
  Li620  Li1+  0.150  0.262  0.888  0.178
  Li2224  Li1+  0.348  0.350  0.956  0.178
  Li7703  Li1+  0.848  0.862  0.089  0.179
  Li1704  Li1+  0.298  0.110  0.251  0.179
  Li4397  Li1+  0.546  0.644  0.714  0.179
  Li1431  Li1+  0.048  0.862  0.489  0.179
  Li2981  Li1+  0.298  0.900  0.247  0.179
  Li7099  Li1+  0.948  0.404  0.082  0.179
  Li587  Li1+  0.198  0.225  0.850  0.179
  Li1960  Li1+  0.298  0.310  0.051  0.179
  Li3070  Li1+  0.348  0.940  0.546  0.179
  Li1406  Li1+  0.148  0.940  0.346  0.179
  Li1434  Li1+  0.052  0.856  0.432  0.180
  Li4641  Li1+  0.496  0.867  0.450  0.180
  Li5750  Li1+  0.752  0.546  0.940  0.180
  Li6098  Li1+  0.648  0.808  0.082  0.180
  Li5363  Li1+  0.748  0.365  0.614  0.180
  Li4127  Li1+  0.450  0.510  0.821  0.180
  Li3179  Li1+  0.329  0.946  0.907  0.180
  Li5110  Li1+  0.752  0.146  0.940  0.180
  Li2138  Li1+  0.252  0.256  0.632  0.180
  Li7168  Li1+  0.981  0.440  0.251  0.180
  Li5267  Li1+  0.650  0.340  0.494  0.181
  Li1796  Li1+  0.200  0.023  0.782  0.181
  Li4971  Li1+  0.729  0.146  0.507  0.181
  Li3829  Li1+  0.546  0.335  0.947  0.181
  Li151  Li1+  0.048  0.062  0.489  0.181
  Li7408  Li1+  0.948  0.750  0.156  0.181
  Li6786  Li1+  0.823  0.200  0.214  0.181
  Li689  Li1+  0.150  0.552  0.003  0.182
  Li5628  Li1+  0.760  0.454  0.582  0.182
  Li5827  Li1+  0.604  0.792  0.350  0.182
  Li5209  Li1+  0.650  0.231  0.211  0.183
  Li7222  Li1+  0.952  0.546  0.540  0.183
  Li2717  Li1+  0.248  0.798  0.481  0.183
  Li3147  Li1+  0.398  0.825  0.850  0.183
  Li2814  Li1+  0.348  0.740  0.746  0.183
  Li3117  Li1+  0.346  0.844  0.714  0.183
  Li5715  Li1+  0.650  0.540  0.894  0.183
  Li4619  Li1+  0.598  0.825  0.450  0.183
  Li2903  Li1+  0.248  0.862  0.089  0.183
  Li1686  Li1+  0.246  0.046  0.272  0.184
  Li3429  Li1+  0.498  0.100  0.647  0.184
  Li5650  Li1+  0.648  0.408  0.682  0.184
  Li3087  Li1+  0.242  0.854  0.783  0.184
  Li3663  Li1+  0.442  0.254  0.583  0.184
  Li176  Li1+  0.148  0.150  0.556  0.184
  Li1464  Li1+  0.148  0.850  0.426  0.185
  Li633  Li1+  0.152  0.244  0.869  0.185
  Li5566  Li1+  0.748  0.540  0.346  0.185
  Li5375  Li1+  0.769  0.350  0.789  0.185
  Li6162  Li1+  0.648  0.808  0.282  0.185
  Li2856  Li1+  0.298  0.710  0.851  0.185
  Li83  Li1+  0.050  0.140  0.294  0.185
  Li5568  Li1+  0.781  0.440  0.251  0.185
  Li2750  Li1+  0.348  0.740  0.546  0.185
  Li1795  Li1+  0.204  0.192  0.750  0.185
  Li1148  Li1+  0.160  0.654  0.582  0.185
  Li5683  Li1+  0.748  0.565  0.614  0.185
  Li224  Li1+  0.054  0.052  0.769  0.185
  Li3888  Li1+  0.548  0.550  0.156  0.185
  Li928  Li1+  0.054  0.452  0.969  0.186
  Li4220  Li1+  0.560  0.654  0.182  0.186
  Li5583  Li1+  0.642  0.454  0.583  0.186
  Li7737  Li1+  0.952  0.844  0.069  0.186
  Li7702  Li1+  0.846  0.846  0.072  0.186
  Li5884  Li1+  0.760  0.654  0.382  0.186
  Li2127  Li1+  0.242  0.254  0.783  0.187
  Li5888  Li1+  0.781  0.640  0.251  0.187
  Li811  Li1+  0.129  0.546  0.507  0.188
  Li5275  Li1+  0.648  0.352  0.401  0.188
  Li5135  Li1+  0.642  0.254  0.183  0.188
  Li6476  Li1+  0.817  0.042  0.253  0.188
  Li6537  Li1+  0.806  0.142  0.515  0.188
  Li6807  Li1+  0.848  0.262  0.289  0.188
  Li7502  Li1+  0.998  0.792  0.447  0.189
  Li3580  Li1+  0.560  0.254  0.182  0.189
  Li5296  Li1+  0.748  0.350  0.556  0.189
  Li190  Li1+  0.148  0.140  0.546  0.189
  Li1814  Li1+  0.246  0.046  0.672  0.189
  Li2038  Li1+  0.352  0.346  0.340  0.189
  Li7052  Li1+  0.817  0.442  0.053  0.189
  Li6453  Li1+  0.946  0.135  0.147  0.189
  Li3493  Li1+  0.498  0.100  0.847  0.189
  Li2635  Li1+  0.398  0.625  0.250  0.189
  Li855  Li1+  0.048  0.462  0.689  0.189
  Li5561  Li1+  0.752  0.444  0.269  0.189
  Li1622  Li1+  0.246  0.046  0.072  0.190
  Li7648  Li1+  0.854  0.652  0.969  0.190
  Li2947  Li1+  0.204  0.992  0.350  0.190
  Li5872  Li1+  0.748  0.750  0.356  0.190
  Li1917  Li1+  0.350  0.117  0.818  0.190
  Li7787  Li1+  0.929  0.946  0.307  0.190
  Li4353  Li1+  0.579  0.600  0.617  0.190
  Li2065  Li1+  0.398  0.200  0.451  0.190
  Li5322  Li1+  0.629  0.350  0.789  0.190
  Li2452  Li1+  0.246  0.556  0.750  0.190
  Li1259  Li1+  0.129  0.746  0.907  0.190
  Li2581  Li1+  0.250  0.706  0.019  0.190
  Li1791  Li1+  0.369  0.150  0.589  0.191
  Li1192  Li1+  0.098  0.710  0.651  0.191
  Li4875  Li1+  0.798  0.025  0.250  0.191
  Li84  Li1+  0.046  0.156  0.350  0.191
  Li2553  Li1+  0.352  0.444  0.869  0.192
  Li7154  Li1+  0.948  0.437  0.215  0.192
  Li1370  Li1+  0.052  0.856  0.232  0.192
  Li191  Li1+  0.169  0.150  0.589  0.192
  Li943  Li1+  0.148  0.542  0.893  0.192
  Li5435  Li1+  0.748  0.204  0.882  0.192
  Li2600  Li1+  0.298  0.710  0.051  0.193
  Li1839  Li1+  0.348  0.142  0.693  0.193
  Li2930  Li1+  0.348  0.838  0.015  0.193
  Li6163  Li1+  0.650  0.940  0.294  0.194
  Li5972  Li1+  0.646  0.756  0.750  0.194
  Li1354  Li1+  0.029  0.950  0.389  0.194
  Li3217  Li1+  0.598  -0.000  0.051  0.194
  Li6838  Li1+  0.952  0.346  0.340  0.194
  Li2418  Li1+  0.348  0.437  0.415  0.194
  Li5639  Li1+  0.746  0.548  0.647  0.195
  Li7605  Li1+  0.946  0.735  0.747  0.195
  Li3830  Li1+  0.552  0.346  0.940  0.195
  Li5042  Li1+  0.748  0.037  0.615  0.195
  Li7190  Li1+  0.846  0.446  0.472  0.195
  Li3846  Li1+  0.554  0.444  0.122  0.195
  Li586  Li1+  0.029  0.350  0.989  0.195
  Li1239  Li1+  0.048  0.662  0.889  0.196
  Li757  Li1+  0.146  0.535  0.347  0.196
  Li2501  Li1+  0.248  0.442  0.928  0.196
  Li5342  Li1+  0.656  0.242  0.714  0.196
  Li7216  Li1+  0.948  0.550  0.556  0.196
  Li2494  Li1+  0.348  0.540  0.746  0.196
  Li3918  Li1+  0.598  0.592  0.247  0.197
  Li2413  Li1+  0.346  0.444  0.514  0.197
  Li282  Li1+  0.052  0.056  0.832  0.197
  Li3967  Li1+  0.569  0.550  0.389  0.197
  Li2044  Li1+  0.360  0.254  0.382  0.197
  Li1835  Li1+  0.329  0.146  0.707  0.197
  Li4566  Li1+  0.446  0.846  0.272  0.197
  Li2543  Li1+  0.348  0.542  0.893  0.198
  Li7848  Li1+  0.898  0.910  0.451  0.198
  Li629  Li1+  0.146  0.335  0.947  0.198
  Li4945  Li1+  0.798  -0.000  0.451  0.198
  Li7425  Li1+  0.979  0.600  0.217  0.198
  Li4788  Li1+  0.558  0.821  0.949  0.198
  Li495  Li1+  0.148  0.342  0.493  0.199
  Li1133  Li1+  0.146  0.644  0.514  0.199
  Li2502  Li1+  0.354  0.444  0.922  0.199
  Li645  Li1+  0.048  0.442  0.128  0.199
  Li4152  Li1+  0.548  0.450  0.826  0.200
  Li4054  Li1+  0.446  0.446  0.672  0.200
  Li2508  Li1+  0.217  0.442  0.853  0.200
  Li4396  Li1+  0.550  0.662  0.688  0.200
  Li338  Li1+  0.048  0.208  0.082  0.201
  Li5183  Li1+  0.769  0.350  0.189  0.201
  Li7882  Li1+  0.829  0.950  0.789  0.201
  Li2288  Li1+  0.348  0.550  0.156  0.201
  Li424  Li1+  0.098  0.310  0.251  0.201
  Li6703  Li1+  0.948  0.142  0.893  0.201
  Li6228  Li1+  0.646  0.956  0.550  0.201
  Li6939  Li1+  0.848  0.352  0.601  0.202
  Li2280  Li1+  0.298  0.510  0.051  0.202
  Li7487  Li1+  0.969  0.750  0.389  0.202
  Li488  Li1+  0.098  0.310  0.451  0.202
  Li1878  Li1+  0.246  0.046  0.872  0.202
  Li3268  Li1+  0.400  0.023  0.382  0.202
  Li5494  Li1+  0.752  0.546  0.140  0.202
  Li3707  Li1+  0.548  0.204  0.482  0.202
  Li4721  Li1+  0.550  0.952  0.603  0.202
  Li1864  Li1+  0.250  0.150  0.849  0.202
  Li1481  Li1+  0.006  0.942  0.715  0.203
  Li1612  Li1+  0.217  0.042  0.053  0.203
  Li4272  Li1+  0.548  0.750  0.356  0.203
  Li6603  Li1+  0.998  0.025  0.650  0.203
  Li7103  Li1+  0.969  0.550  0.189  0.203
  Li2357  Li1+  0.346  0.535  0.347  0.204
  Li1625  Li1+  0.250  0.031  0.011  0.204
  Li4737  Li1+  0.579  0.800  0.817  0.204
  Li842  Li1+  0.029  0.550  0.789  0.205
  Li7858  Li1+  0.948  0.837  0.415  0.205
  Li7413  Li1+  0.946  0.735  0.147  0.205
  Li5931  Li1+  0.729  0.746  0.507  0.205
  Li2574  Li1+  0.398  0.792  0.047  0.206
  Li3048  Li1+  0.298  0.910  0.451  0.206
  Li7513  Li1+  0.850  0.631  0.411  0.206
  Li4638  Li1+  0.456  0.842  0.514  0.206
  Li6433  Li1+  0.896  0.067  0.050  0.206
  Li4478  Li1+  0.548  0.740  0.946  0.206
  Li468  Li1+  0.046  0.356  0.550  0.206
  Li4021  Li1+  0.546  0.535  0.547  0.206
  Li6667  Li1+  0.998  0.025  0.850  0.206
  Li1491  Li1+  0.050  0.940  0.694  0.206
  Li3726  Li1+  0.598  0.392  0.647  0.207
  Li4460  Li1+  0.550  0.662  0.888  0.207
  Li2284  Li1+  0.350  0.462  0.088  0.207
  Li4658  Li1+  0.548  0.837  0.415  0.207
  Li6061  Li1+  0.746  0.644  0.914  0.207
  Li3607  Li1+  0.448  0.262  0.289  0.207
  Li2733  Li1+  0.346  0.644  0.514  0.208
  Li447  Li1+  0.169  0.350  0.389  0.208
  Li4338  Li1+  0.548  0.637  0.415  0.208
  Li1279  Li1+  0.169  0.750  0.989  0.208
  Li4984  Li1+  0.748  0.050  0.426  0.208
  Li1973  Li1+  0.346  0.335  0.147  0.209
  Li4223  Li1+  0.569  0.750  0.189  0.209
  Li4806  Li1+  0.754  0.044  0.122  0.209
  Li3270  Li1+  0.554  0.044  0.322  0.209
  Li7039  Li1+  0.969  0.350  0.989  0.209
  Li6765  Li1+  0.946  0.244  0.114  0.209
  Li3339  Li1+  0.598  0.025  0.450  0.209
  Li5948  Li1+  0.760  0.654  0.582  0.209
  Li1020  Li1+  0.160  0.654  0.182  0.209
  Li4213  Li1+  0.546  0.735  0.147  0.209
  Li5365  Li1+  0.746  0.335  0.747  0.209
  Li1900  Li1+  0.350  0.062  0.888  0.209
  Li7272  Li1+  0.898  0.510  0.651  0.210
  Li2652  Li1+  0.250  0.750  0.356  0.210
  Li6982  Li1+  0.954  0.244  0.922  0.210
  Li5908  Li1+  0.646  0.756  0.550  0.210
  Li4769  Li1+  0.496  0.867  0.850  0.210
  Li6833  Li1+  0.950  0.352  0.203  0.210
  Li6072  Li1+  0.748  0.650  0.826  0.210
  Li1428  Li1+  0.046  0.956  0.550  0.210
  Li1499  Li1+  0.048  0.952  0.601  0.211
  Li3425  Li1+  0.496  0.067  0.650  0.211
  Li6340  Li1+  0.600  0.823  0.982  0.211
  Li2805  Li1+  0.346  0.735  0.747  0.211
  Li5685  Li1+  0.746  0.535  0.747  0.211
  Li7118  Li1+  0.998  0.592  0.247  0.211
  Li5022  Li1+  0.656  0.042  0.714  0.211
  Li5105  Li1+  0.750  0.152  0.803  0.211
  Li298  Li1+  0.150  0.054  0.971  0.211
  Li2929  Li1+  0.350  0.952  0.003  0.211
  Li6389  Li1+  0.746  0.935  0.947  0.211
  Li310  Li1+  0.152  0.146  0.940  0.212
  Li3836  Li1+  0.560  0.254  0.982  0.212
  Li5054  Li1+  0.748  0.140  0.746  0.212
  Li5396  Li1+  0.646  0.356  0.950  0.212
  Li478  Li1+  0.056  0.242  0.514  0.212
  Li5285  Li1+  0.698  0.300  0.447  0.212
  Li104  Li1+  0.098  0.110  0.251  0.212
  Li1269  Li1+  0.146  0.735  0.947  0.213
  Li1078  Li1+  0.152  0.746  0.340  0.213
  Li3228  Li1+  0.450  0.150  0.156  0.213
  Li2155  Li1+  0.329  0.346  0.707  0.213
  Li4332  Li1+  0.550  0.662  0.488  0.213
  Li5886  Li1+  0.748  0.740  0.346  0.213
  Li1592  Li1+  0.148  0.850  0.826  0.213
  Li2942  Li1+  0.348  0.940  0.146  0.213
  Li6899  Li1+  0.948  0.365  0.414  0.214
  Li61  Li1+  0.150  0.117  0.018  0.214
  Li2041  Li1+  0.352  0.244  0.269  0.214
  Li4163  Li1+  0.404  0.792  0.150  0.214
  Li1205  Li1+  0.146  0.735  0.747  0.214
  Li309  Li1+  0.146  0.135  0.947  0.215
  Li240  Li1+  0.148  0.150  0.756  0.215
  Li1964  Li1+  0.350  0.262  0.088  0.215
  Li1440  Li1+  0.054  0.852  0.569  0.215
  Li7951  Li1+  0.842  0.854  0.983  0.215
  Li7776  Li1+  0.854  0.852  0.369  0.215
  Li2242  Li1+  0.223  0.400  0.014  0.215
  Li6545  Li1+  0.998  -0.000  0.451  0.215
  Li1547  Li1+  0.198  0.825  0.850  0.215
  Li2547  Li1+  0.348  0.565  0.814  0.215
  Li6277  Li1+  0.648  0.842  0.728  0.215
  Li1889  Li1+  0.296  0.067  0.850  0.215
  Li2835  Li1+  0.250  0.740  0.894  0.215
  Li4921  Li1+  0.752  0.044  0.269  0.216
  Li621  Li1+  0.146  0.244  0.914  0.216
  Li2117  Li1+  0.248  0.242  0.728  0.216
  Li3203  Li1+  0.404  0.192  0.150  0.217
  Li3863  Li1+  0.448  0.462  0.089  0.217
  Li7234  Li1+  0.823  0.400  0.614  0.217
  Li4570  Li1+  0.452  0.856  0.232  0.217
  Li7429  Li1+  0.848  0.642  0.328  0.218
  Li5147  Li1+  0.648  0.352  0.001  0.218
  Li2104  Li1+  0.348  0.250  0.426  0.218
  Li2607  Li1+  0.348  0.742  0.093  0.218
  Li4037  Li1+  0.448  0.442  0.728  0.218
  Li2769  Li1+  0.398  0.600  0.651  0.219
  Li5661  Li1+  0.648  0.598  0.681  0.219
  Li4158  Li1+  0.548  0.540  0.946  0.219
  Li7898  Li1+  0.852  0.856  0.632  0.219
  Li6986  Li1+  0.829  0.350  0.989  0.219
  Li2437  Li1+  0.248  0.442  0.728  0.219
  Li5010  Li1+  0.648  0.008  0.682  0.219
  Li731  Li1+  0.048  0.552  0.201  0.219
  Li7484  Li1+  0.960  0.654  0.382  0.220
  Li5041  Li1+  0.750  0.152  0.603  0.220
  Li558  Li1+  0.150  0.279  0.614  0.220
  Li1496  Li1+  0.052  0.969  0.614  0.220
  Li7854  Li1+  0.950  0.879  0.414  0.220
  Li1815  Li1+  0.248  0.062  0.689  0.220
  Li626  Li1+  0.148  0.237  0.815  0.220
  Li2608  Li1+  0.348  0.750  0.156  0.220
  Li1976  Li1+  0.348  0.250  0.026  0.221
  Li5883  Li1+  0.748  0.604  0.282  0.221
  Li4288  Li1+  0.581  0.640  0.251  0.221
  Li232  Li1+  0.098  0.110  0.651  0.221
  Li843  Li1+  0.198  0.425  0.650  0.221
  Li7446  Li1+  0.846  0.646  0.272  0.222
  Li7402  Li1+  0.950  0.654  0.171  0.222
  Li2329  Li1+  0.250  0.431  0.211  0.222
  Li1182  Li1+  0.056  0.642  0.714  0.222
  Li187  Li1+  0.148  0.004  0.482  0.222
  Li2536  Li1+  0.298  0.510  0.851  0.223
  Li7418  Li1+  0.946  0.673  0.151  0.223
  Li225  Li1+  0.096  0.067  0.650  0.223
  Li4022  Li1+  0.552  0.546  0.540  0.223
  Li913  Li1+  0.198  0.400  0.851  0.223
  Li4077  Li1+  0.546  0.444  0.714  0.223
  Li3006  Li1+  0.348  0.940  0.346  0.224
  Li4992  Li1+  0.781  0.040  0.451  0.224
  Li5265  Li1+  0.798  0.200  0.451  0.224
  Li7419  Li1+  0.948  0.604  0.082  0.224
  Li649  Li1+  0.006  0.542  0.115  0.224
  Li5331  Li1+  0.650  0.340  0.694  0.224
  Li7193  Li1+  0.850  0.431  0.411  0.225
  Li1344  Li1+  0.181  0.840  0.051  0.225
  Li446  Li1+  0.148  0.340  0.346  0.225
  Li1191  Li1+  0.094  0.752  0.781  0.225
  Li6988  Li1+  0.817  0.242  0.853  0.225
  Li5622  Li1+  0.752  0.546  0.540  0.225
  Li4528  Li1+  0.548  0.950  0.156  0.225
  Li5917  Li1+  0.648  0.798  0.481  0.225
  Li3977  Li1+  0.406  0.542  0.515  0.226
  Li1234  Li1+  0.048  0.608  0.882  0.226
  Li4840  Li1+  0.698  0.110  0.051  0.226
  Li1026  Li1+  0.023  0.600  0.214  0.226
  Li1989  Li1+  0.248  0.242  0.328  0.226
  Li3762  Li1+  0.548  0.237  0.615  0.226
  Li7228  Li1+  0.960  0.454  0.582  0.227
  Li2661  Li1+  0.298  0.700  0.247  0.227
  Li2615  Li1+  0.348  0.781  0.079  0.227
  Li6693  Li1+  0.898  0.100  0.847  0.227
  Li268  Li1+  0.017  0.042  0.853  0.227
  Li4833  Li1+  0.696  0.067  0.050  0.227
  Li3870  Li1+  0.456  0.442  0.114  0.227
  Li5739  Li1+  0.729  0.546  0.907  0.227
  Li6157  Li1+  0.600  0.896  0.288  0.227
  Li3478  Li1+  0.446  0.046  0.872  0.228
  Li5470  Li1+  0.656  0.442  0.114  0.228
  Li5638  Li1+  0.754  0.444  0.722  0.228
  Li4305  Li1+  0.598  0.600  0.451  0.228
  Li4543  Li1+  0.569  0.950  0.189  0.229
  Li3635  Li1+  0.548  0.365  0.214  0.229
  Li3701  Li1+  0.546  0.335  0.547  0.229
  Li5777  Li1+  0.798  0.600  0.051  0.229
  Li543  Li1+  0.050  0.310  0.621  0.229
  Li1901  Li1+  0.346  0.044  0.914  0.229
  Li221  Li1+  0.048  0.198  0.681  0.229
  Li5037  Li1+  0.746  0.044  0.714  0.229
  Li4479  Li1+  0.569  0.750  0.989  0.229
  Li5773  Li1+  0.600  0.696  0.088  0.230
  Li5194  Li1+  0.629  0.350  0.389  0.230
  Li2189  Li1+  0.200  0.296  0.888  0.230
  Li7528  Li1+  0.898  0.710  0.451  0.230
  Li6968  Li1+  0.948  0.250  0.626  0.230
  Li5438  Li1+  0.748  0.340  0.946  0.230
  Li1046  Li1+  0.046  0.646  0.272  0.230
  Li3279  Li1+  0.442  0.054  0.383  0.230
  Li1025  Li1+  0.179  0.600  0.217  0.230
  Li421  Li1+  0.098  0.300  0.247  0.231
  Li4784  Li1+  0.548  0.950  0.956  0.231
  Li7982  Li1+  0.950  0.879  0.814  0.231
  Li6560  Li1+  0.854  0.052  0.569  0.231
  Li1071  Li1+  0.148  0.742  0.293  0.232
  Li4254  Li1+  0.456  0.642  0.314  0.232
  Li2738  Li1+  0.348  0.637  0.415  0.232
  Li6673  Li1+  0.998  -0.000  0.851  0.232
  Li7095  Li1+  0.948  0.581  0.079  0.232
  Li5835  Li1+  0.798  0.625  0.250  0.232
  Li248  Li1+  0.148  0.050  0.626  0.232
  Li3337  Li1+  0.406  0.142  0.515  0.232
  Li1043  Li1+  0.050  0.740  0.294  0.232
  Li2346  Li1+  0.350  0.454  0.371  0.232
  Li7826  Li1+  0.848  0.808  0.482  0.232
  Li1066  Li1+  0.150  0.654  0.371  0.233
  Li6897  Li1+  0.950  0.352  0.403  0.233
  Li5357  Li1+  0.746  0.244  0.714  0.233
  Li4117  Li1+  0.450  0.506  0.819  0.233
  Li6844  Li1+  0.960  0.254  0.382  0.233
  Li2711  Li1+  0.248  0.662  0.489  0.233
  Li2482  Li1+  0.348  0.437  0.615  0.233
  Li320  Li1+  0.181  0.040  0.851  0.234
  Li5355  Li1+  0.729  0.346  0.707  0.234
  Li1059  Li1+  0.098  0.600  0.213  0.234
  Li1573  Li1+  0.098  0.900  0.847  0.235
  Li1320  Li1+  0.098  0.910  0.051  0.235
  Li2132  Li1+  0.246  0.356  0.750  0.235
  Li7441  Li1+  0.998  0.600  0.251  0.235
  Li5432  Li1+  0.748  0.250  0.826  0.235
  Li2586  Li1+  0.252  0.656  0.032  0.235
  Li5450  Li1+  0.629  0.550  0.189  0.235
  Li513  Li1+  0.179  0.200  0.617  0.236
  Li121  Li1+  0.152  0.044  0.269  0.236
  Li2112  Li1+  0.381  0.240  0.451  0.236
  Li7904  Li1+  0.854  0.852  0.769  0.236
  Li5780  Li1+  0.646  0.756  0.150  0.236
  Li352  Li1+  0.054  0.252  0.169  0.236
  Li5393  Li1+  0.798  0.200  0.851  0.236
  Li1412  Li1+  -0.000  0.823  0.582  0.236
  Li2137  Li1+  0.250  0.231  0.611  0.236
  Li254  Li1+  0.148  0.140  0.746  0.237
  Li5163  Li1+  0.729  0.346  0.107  0.237
  Li4291  Li1+  0.404  0.792  0.550  0.237
  Li4177  Li1+  0.598  0.600  0.051  0.237
  Li5564  Li1+  0.760  0.454  0.382  0.237
  Li3445  Li1+  0.546  0.135  0.747  0.237
  Li2262  Li1+  0.246  0.446  0.072  0.237
  Li4092  Li1+  0.560  0.454  0.782  0.237
  Li5029  Li1+  0.698  0.100  0.647  0.238
  Li5458  Li1+  0.648  0.408  0.082  0.238
  Li1977  Li1+  0.352  0.244  0.069  0.238
  Li4725  Li1+  0.546  0.935  0.747  0.238
  Li7575  Li1+  0.848  0.662  0.689  0.238
  Li5881  Li1+  0.752  0.644  0.269  0.238
  Li5726  Li1+  0.656  0.442  0.914  0.239
  Li2254  Li1+  0.398  0.592  0.047  0.239
  Li4485  Li1+  0.448  0.842  0.128  0.239
  Li3387  Li1+  0.548  0.004  0.482  0.239
  Li5878  Li1+  0.752  0.746  0.340  0.240
  Li5059  Li1+  0.604  0.192  0.950  0.240
  Li6325  Li1+  0.746  0.935  0.747  0.240
  Li2187  Li1+  0.398  0.225  0.850  0.240
  Li7710  Li1+  0.856  0.842  0.114  0.240
  Li3017  Li1+  0.206  0.942  0.515  0.240
  Li7286  Li1+  0.952  0.546  0.740  0.241
  Li1931  Li1+  0.398  0.225  0.050  0.241
  Li1395  Li1+  0.148  0.965  0.214  0.241
  Li2639  Li1+  0.242  0.654  0.383  0.241
  Li1512  Li1+  0.098  0.910  0.651  0.241
  Li7002  Li1+  0.852  0.256  0.832  0.241
  Li5618  Li1+  0.748  0.437  0.415  0.241
  Li6888  Li1+  0.898  0.310  0.451  0.241
  Li5953  Li1+  0.779  0.600  0.617  0.242
  Li1967  Li1+  0.348  0.342  0.093  0.242
  Li1167  Li1+  0.042  0.654  0.783  0.242
  Li3019  Li1+  0.398  0.825  0.450  0.242
  Li5785  Li1+  0.650  0.631  0.011  0.243
  Li1109  Li1+  0.050  0.706  0.419  0.243
  Li3876  Li1+  0.494  0.500  0.149  0.243
  Li7472  Li1+  0.948  0.750  0.356  0.243
  Li545  Li1+  0.096  0.267  0.650  0.243
  Li4799  Li1+  0.569  0.950  0.989  0.243
  Li3018  Li1+  0.229  0.950  0.589  0.244
  Li4094  Li1+  0.548  0.540  0.746  0.244
  Li1785  Li1+  0.352  0.044  0.469  0.244
  Li401  Li1+  0.198  0.200  0.251  0.244
  Li4754  Li1+  0.448  0.808  0.882  0.244
  Li4419  Li1+  0.404  0.792  0.950  0.244
  Li5627  Li1+  0.748  0.404  0.482  0.244
  Li7769  Li1+  0.850  0.831  0.211  0.244
  Li989  Li1+  0.048  0.798  0.081  0.245
  Li7116  Li1+  0.817  0.442  0.253  0.245
  Li1694  Li1+  0.256  0.042  0.314  0.245
  Li2842  Li1+  0.252  0.656  0.832  0.245
  Li416  Li1+  0.054  0.252  0.369  0.245
  Li719  Li1+  0.042  0.454  0.383  0.245
  Li3974  Li1+  0.554  0.444  0.522  0.245
  Li1826  Li1+  0.256  0.067  0.754  0.246
  Li4030  Li1+  0.548  0.540  0.546  0.246
  Li4576  Li1+  0.454  0.852  0.369  0.246
  Li4816  Li1+  0.798  0.098  0.186  0.246
  Li3641  Li1+  0.552  0.244  0.269  0.246
  Li7166  Li1+  0.948  0.540  0.346  0.246
  Li1567  Li1+  0.050  0.910  0.821  0.247
  Li2039  Li1+  0.348  0.381  0.279  0.247
  Li4466  Li1+  0.548  0.637  0.815  0.247
  Li5119  Li1+  0.769  0.150  0.989  0.247
  Li5838  Li1+  0.798  0.792  0.247  0.247
  Li879  Li1+  0.148  0.542  0.693  0.247
  Li670  Li1+  0.056  0.442  0.114  0.248
  Li2772  Li1+  0.246  0.756  0.750  0.248
  Li350  Li1+  0.056  0.242  0.114  0.248
  Li2708  Li1+  0.246  0.756  0.550  0.248
  Li4974  Li1+  0.750  0.079  0.414  0.248
  Li3269  Li1+  0.448  0.042  0.328  0.248
  Li1869  Li1+  0.200  0.096  0.888  0.248
  Li4562  Li1+  0.448  0.808  0.282  0.249
  Li604  Li1+  0.050  0.350  0.956  0.249
  Li2751  Li1+  0.369  0.750  0.589  0.249
  Li7296  Li1+  0.981  0.440  0.651  0.249
  Li706  Li1+  0.023  0.400  0.214  0.249
  Li1000  Li1+  0.098  0.710  0.051  0.249
  Li588  Li1+  0.017  0.242  0.853  0.250
  Li6262  Li1+  0.752  0.946  0.540  0.250
  Li2062  Li1+  0.398  0.392  0.447  0.250
  Li7825  Li1+  0.998  0.800  0.451  0.250
  Li4542  Li1+  0.548  0.940  0.146  0.250
  Li4395  Li1+  0.529  0.746  0.707  0.250
  Li3156  Li1+  0.246  0.956  0.950  0.250
  Li4564  Li1+  0.446  0.956  0.350  0.250
  Li3723  Li1+  0.598  0.225  0.650  0.250
  Li6440  Li1+  0.898  0.110  0.051  0.250
  Li6706  Li1+  0.948  0.037  0.815  0.250
  Li4523  Li1+  0.529  0.946  0.107  0.251
  Li7510  Li1+  0.846  0.646  0.472  0.251
  Li7743  Li1+  0.969  0.950  0.189  0.251
  Li2034  Li1+  0.348  0.237  0.215  0.251
  Li7185  Li1+  0.998  0.400  0.451  0.251
  Li3596  Li1+  0.417  0.242  0.253  0.251
  Li4349  Li1+  0.550  0.717  0.418  0.252
  Li2199  Li1+  0.248  0.262  0.889  0.252
  Li7219  Li1+  0.948  0.565  0.414  0.252
  Li5572  Li1+  0.600  0.423  0.582  0.252
  Li160  Li1+  0.054  0.052  0.569  0.252
  Li7477  Li1+  0.946  0.735  0.347  0.252
  Li1247  Li1+  0.050  0.710  0.821  0.253
  Li3512  Li1+  0.548  0.050  0.826  0.253
  Li5115  Li1+  0.748  0.004  0.882  0.253
  Li7377  Li1+  0.998  0.600  0.051  0.253
  Li2655  Li1+  0.250  0.710  0.221  0.253
  Li2672  Li1+  0.348  0.750  0.356  0.253
  Li4648  Li1+  0.498  0.910  0.451  0.254
  Li1702  Li1+  0.300  0.196  0.313  0.254
  Li3531  Li1+  0.598  0.225  0.050  0.254
  Li794  Li1+  0.052  0.456  0.432  0.254
  Li7636  Li1+  0.846  0.756  0.950  0.254
  Li1278  Li1+  0.148  0.740  0.946  0.254
  Li5066  Li1+  0.629  0.150  0.989  0.254
  Li532  Li1+  0.046  0.356  0.750  0.254
  Li3850  Li1+  0.429  0.550  0.189  0.254
  Li2326  Li1+  0.246  0.446  0.272  0.254
  Li3749  Li1+  0.498  0.300  0.647  0.255
  Li1633  Li1+  0.296  0.067  0.050  0.255
  Li5617  Li1+  0.750  0.552  0.403  0.255
  Li1940  Li1+  0.246  0.356  0.150  0.255
  Li5134  Li1+  0.798  0.392  0.047  0.256
  Li6169  Li1+  0.650  0.831  0.211  0.256
  Li2623  Li1+  0.369  0.750  0.189  0.256
  Li5100  Li1+  0.750  0.062  0.888  0.256
  Li5302  Li1+  0.752  0.346  0.540  0.256
  Li2546  Li1+  0.348  0.437  0.815  0.256
  Li1559  Li1+  0.048  0.862  0.889  0.256
  Li3634  Li1+  0.548  0.237  0.215  0.256
  Li3455  Li1+  0.569  0.150  0.789  0.256
  Li1358  Li1+  0.198  0.992  0.247  0.256
  Li1113  Li1+  0.050  0.631  0.411  0.256
  Li5084  Li1+  0.650  0.150  0.956  0.257
  Li1701  Li1+  0.298  0.100  0.247  0.257
  Li5749  Li1+  0.746  0.535  0.947  0.257
  Li3546  Li1+  0.452  0.256  0.032  0.257
  Li6218  Li1+  0.629  0.950  0.589  0.257
  Li3719  Li1+  0.546  0.348  0.647  0.257
  Li6142  Li1+  0.748  0.940  0.146  0.257
  Li970  Li1+  0.029  0.750  0.189  0.257
  Li4241  Li1+  0.598  0.600  0.251  0.257
  Li4686  Li1+  0.598  0.992  0.647  0.257
  Li5594  Li1+  0.652  0.456  0.432  0.258
  Li67  Li1+  0.004  0.192  0.350  0.258
  Li1876  Li1+  0.246  0.156  0.950  0.258
  Li2252  Li1+  0.217  0.442  0.053  0.258
  Li4860  Li1+  0.760  0.054  0.182  0.258
  Li1348  Li1+  -0.000  0.823  0.382  0.258
  Li7678  Li1+  0.948  0.740  0.946  0.258
  Li1854  Li1+  0.348  0.140  0.746  0.258
  Li1407  Li1+  0.169  0.950  0.389  0.258
  Li956  Li1+  0.160  0.454  0.982  0.259
  Li537  Li1+  0.050  0.231  0.611  0.259
  Li4146  Li1+  0.548  0.437  0.815  0.259
  Li7211  Li1+  0.929  0.546  0.507  0.259
  Li7939  Li1+  0.804  0.992  0.950  0.259
  Li404  Li1+  0.046  0.356  0.350  0.259
  Li3199  Li1+  0.369  0.950  0.989  0.259
  Li4409  Li1+  0.552  0.644  0.669  0.259
  Li4954  Li1+  0.652  0.056  0.432  0.259
  Li7733  Li1+  0.946  0.935  0.147  0.260
  Li6053  Li1+  0.698  0.700  0.847  0.260
  Li6238  Li1+  0.656  0.842  0.514  0.260
  Li6940  Li1+  0.850  0.350  0.756  0.260
  Li1218  Li1+  0.023  0.600  0.814  0.260
  Li901  Li1+  0.048  0.442  0.928  0.260
  Li7114  Li1+  0.829  0.550  0.389  0.260
  Li2172  Li1+  0.360  0.254  0.782  0.260
  Li2529  Li1+  0.296  0.467  0.850  0.261
  Li5659  Li1+  0.648  0.552  0.601  0.261
  Li5269  Li1+  0.650  0.306  0.419  0.261
  Li4607  Li1+  0.569  0.950  0.389  0.261
  Li6412  Li1+  0.817  0.042  0.053  0.261
  Li3011  Li1+  0.204  0.992  0.550  0.261
  Li6868  Li1+  0.846  0.356  0.550  0.262
  Li2316  Li1+  0.217  0.442  0.253  0.262
  Li4897  Li1+  0.696  0.067  0.250  0.262
  Li6511  Li1+  0.948  0.142  0.293  0.262
  Li7758  Li1+  0.998  0.992  0.247  0.262
  Li758  Li1+  0.152  0.546  0.340  0.262
  Li7499  Li1+  0.998  0.625  0.450  0.262
  Li432  Li1+  0.148  0.350  0.356  0.262
  Li6798  Li1+  0.998  0.392  0.247  0.262
  Li2841  Li1+  0.250  0.631  0.811  0.263
  Li4614  Li1+  0.554  0.844  0.522  0.263
  Li3900  Li1+  0.560  0.454  0.182  0.264
  Li5473  Li1+  0.696  0.467  0.050  0.264
  Li6745  Li1+  0.850  0.231  0.011  0.264
  Li1882  Li1+  0.252  0.056  0.832  0.264
  Li3159  Li1+  0.248  0.862  0.889  0.264
  Li82  Li1+  0.048  0.008  0.282  0.264
  Li6469  Li1+  0.848  0.042  0.328  0.264
  Li1985  Li1+  0.379  0.200  0.217  0.264
  Li7511  Li1+  0.848  0.662  0.489  0.265
  Li7177  Li1+  0.806  0.542  0.515  0.265
  Li6591  Li1+  0.969  0.150  0.589  0.265
  Li5978  Li1+  0.652  0.656  0.632  0.265
  Li6597  Li1+  0.848  0.042  0.728  0.265
  Li4636  Li1+  0.450  0.950  0.556  0.265
  Li6130  Li1+  0.748  0.838  0.015  0.265
  Li7861  Li1+  0.946  0.935  0.547  0.266
  Li373  Li1+  0.146  0.335  0.147  0.266
  Li6257  Li1+  0.750  0.952  0.403  0.266
  Li1943  Li1+  0.248  0.262  0.089  0.266
  Li2969  Li1+  0.250  0.831  0.211  0.266
  Li3801  Li1+  0.450  0.231  0.811  0.267
  Li4178  Li1+  0.448  0.608  0.082  0.267
  Li2088  Li1+  0.298  0.310  0.451  0.267
  Li7164  Li1+  0.960  0.454  0.382  0.267
  Li4726  Li1+  0.552  0.946  0.740  0.267
  Li1277  Li1+  0.150  0.717  0.818  0.268
  Li1366  Li1+  0.046  0.846  0.272  0.268
  Li5646  Li1+  0.798  0.592  0.647  0.268
  Li2616  Li1+  0.348  0.650  0.026  0.268
  Li5805  Li1+  0.746  0.644  0.114  0.268
  Li5426  Li1+  0.748  0.237  0.815  0.268
  Li4662  Li1+  0.552  0.946  0.540  0.268
  Li6795  Li1+  0.998  0.225  0.250  0.269
  Li4938  Li1+  0.629  0.150  0.589  0.269
  Li6241  Li1+  0.696  0.867  0.450  0.269
  Li4979  Li1+  0.748  0.165  0.414  0.269
  Li5311  Li1+  0.769  0.350  0.589  0.269
  Li1950  Li1+  0.256  0.242  0.114  0.269
  Li5961  Li1+  0.606  0.742  0.715  0.270
  Li7199  Li1+  0.850  0.510  0.421  0.270
  Li1349  Li1+  0.048  0.842  0.328  0.270
  Li6400  Li1+  0.781  0.840  0.851  0.270
  Li1457  Li1+  0.150  0.952  0.403  0.270
  Li1110  Li1+  0.046  0.646  0.472  0.270
  Li3883  Li1+  0.529  0.546  0.107  0.270
  Li1797  Li1+  0.248  0.042  0.728  0.270
  Li7638  Li1+  0.846  0.646  0.872  0.271
  Li3504  Li1+  0.548  0.150  0.956  0.271
  Li3648  Li1+  0.581  0.240  0.251  0.271
  Li1420  Li1+  0.017  0.842  0.453  0.271
  Li4720  Li1+  0.548  0.950  0.756  0.272
  Li4874  Li1+  0.629  0.150  0.389  0.272
  Li2864  Li1+  0.348  0.750  0.956  0.272
  Li4801  Li1+  0.779  -0.000  0.017  0.272
  Li6200  Li1+  0.748  0.850  0.226  0.272
  Li3868  Li1+  0.450  0.550  0.156  0.272
  Li6289  Li1+  0.798  0.800  0.651  0.272
  Li1832  Li1+  0.298  0.110  0.651  0.272
  Li7321  Li1+  0.850  0.431  0.811  0.272
  Li2108  Li1+  0.360  0.254  0.582  0.273
  Li2922  Li1+  0.350  0.854  0.171  0.273
  Li2162  Li1+  0.348  0.237  0.615  0.273
  Li377  Li1+  0.152  0.244  0.069  0.274
  Li7947  Li1+  0.998  0.825  0.850  0.274
  Li5514  Li1+  0.629  0.550  0.389  0.274
  Li1339  Li1+  0.148  0.804  0.082  0.274
  Li4124  Li1+  0.450  0.550  0.956  0.275
  Li5573  Li1+  0.648  0.442  0.528  0.275
  Li3377  Li1+  0.550  0.152  0.403  0.275
  Li5728  Li1+  0.654  0.452  0.969  0.275
  Li4369  Li1+  0.598  0.600  0.651  0.276
  Li6385  Li1+  0.750  0.952  0.803  0.276
  Li1982  Li1+  0.348  0.340  0.146  0.276
  Li2037  Li1+  0.346  0.335  0.347  0.276
  Li7207  Li1+  0.894  0.552  0.581  0.276
  Li1241  Li1+  0.050  0.631  0.811  0.277
  Li3653  Li1+  0.448  0.242  0.528  0.277
  Li1663  Li1+  0.369  0.150  0.189  0.277
  Li1585  Li1+  0.150  0.952  0.803  0.278
  Li1980  Li1+  0.360  0.254  0.182  0.278
  Li2939  Li1+  0.348  0.804  0.082  0.278
  Li7574  Li1+  0.846  0.646  0.672  0.279
  Li5424  Li1+  0.748  0.350  0.956  0.279
  Li7920  Li1+  0.948  0.950  0.756  0.279
  Li7416  Li1+  0.948  0.650  0.026  0.280
  Li4618  Li1+  0.429  0.950  0.589  0.280
  Li4118  Li1+  0.446  0.446  0.872  0.280
  Li2408  Li1+  0.298  0.510  0.451  0.280
  Li1246  Li1+  0.056  0.642  0.914  0.280
  Li7926  Li1+  0.952  0.946  0.740  0.280
  Li3071  Li1+  0.369  0.950  0.589  0.280
  Li305  Li1+  0.150  0.152  0.803  0.281
  Li4235  Li1+  0.598  0.625  0.250  0.281
  Li7627  Li1+  0.998  0.625  0.850  0.281
  Li1359  Li1+  0.042  0.854  0.383  0.282
  Li5174  Li1+  0.752  0.346  0.140  0.282
  Li1436  Li1+  0.050  0.950  0.556  0.282
  Li4246  Li1+  0.446  0.646  0.272  0.282
  Li7831  Li1+  0.848  0.862  0.489  0.282
  Li7243  Li1+  0.998  0.425  0.650  0.282
  Li1255  Li1+  0.094  0.752  0.981  0.282
  Li1645  Li1+  0.346  0.044  0.114  0.282
  Li3711  Li1+  0.569  0.350  0.589  0.282
  Li4169  Li1+  0.406  0.742  0.115  0.282
  Li6287  Li1+  0.642  0.854  0.783  0.283
  Li6905  Li1+  0.952  0.244  0.469  0.283
  Li6573  Li1+  0.946  0.044  0.514  0.283
  Li1343  Li1+  0.169  0.950  0.189  0.283
  Li1919  Li1+  0.369  0.150  0.989  0.284
  Li6548  Li1+  0.846  0.156  0.550  0.284
  Li7410  Li1+  0.948  0.638  0.015  0.284
  Li1172  Li1+  0.046  0.756  0.750  0.284
  Li3849  Li1+  0.406  0.542  0.115  0.284
  Li7113  Li1+  0.806  0.542  0.315  0.284
  Li6083  Li1+  0.604  0.992  0.150  0.284
  Li5254  Li1+  0.754  0.244  0.522  0.284
  Li6293  Li1+  0.650  0.906  0.619  0.284
  Li3007  Li1+  0.369  0.950  0.389  0.284
  Li2348  Li1+  0.350  0.462  0.288  0.284
  Li7127  Li1+  0.848  0.462  0.289  0.285
  Li2425  Li1+  0.352  0.444  0.469  0.285
  Li4704  Li1+  0.454  0.852  0.769  0.285
  Li6079  Li1+  0.769  0.750  0.989  0.285
  Li3158  Li1+  0.246  0.846  0.872  0.285
  Li2713  Li1+  0.250  0.631  0.411  0.285
  Li7224  Li1+  0.948  0.450  0.426  0.286
  Li691  Li1+  0.148  0.565  0.014  0.286
  Li2817  Li1+  0.379  0.600  0.817  0.286
  Li5484  Li1+  0.750  0.462  0.088  0.286
  Li7352  Li1+  0.948  0.450  0.826  0.287
  Li2105  Li1+  0.352  0.244  0.469  0.287
  Li4520  Li1+  0.498  0.910  0.051  0.287
  Li4088  Li1+  0.548  0.450  0.626  0.287
  Li1906  Li1+  0.348  0.037  0.815  0.288
  Li5160  Li1+  0.698  0.310  0.051  0.288
  Li4994  Li1+  0.623  -0.000  0.614  0.288
  Li1575  Li1+  0.094  0.952  0.981  0.288
  Li409  Li1+  0.050  0.231  0.211  0.288
  Li295  Li1+  0.094  0.152  0.981  0.288
  Li2550  Li1+  0.352  0.546  0.940  0.289
  Li5605  Li1+  0.698  0.500  0.447  0.289
  Li3417  Li1+  0.450  0.031  0.611  0.289
  Li6934  Li1+  0.846  0.246  0.672  0.289
  Li4000  Li1+  0.454  0.452  0.569  0.290
  Li2270  Li1+  0.256  0.442  0.114  0.290
  Li3402  Li1+  0.429  0.150  0.789  0.290
  Li4920  Li1+  0.748  0.050  0.226  0.290
  Li824  Li1+  0.148  0.450  0.426  0.290
  Li7774  Li1+  0.856  0.842  0.314  0.291
  Li1677  Li1+  0.200  0.096  0.288  0.291
  Li3025  Li1+  0.398  0.800  0.451  0.291
  Li5964  Li1+  0.617  0.642  0.653  0.291
  Li7764  Li1+  0.846  0.956  0.350  0.291
  Li382  Li1+  0.148  0.340  0.146  0.291
  Li5202  Li1+  0.648  0.208  0.282  0.291
  Li1433  Li1+  0.050  0.831  0.411  0.291
  Li146  Li1+  0.048  0.008  0.482  0.291
  Li5679  Li1+  0.748  0.542  0.693  0.291
  Li4928  Li1+  0.781  0.040  0.251  0.291
  Li5783  Li1+  0.648  0.662  0.089  0.292
  Li6574  Li1+  0.950  0.079  0.414  0.292
  Li4113  Li1+  0.598  0.400  0.851  0.292
  Li368  Li1+  0.148  0.350  0.156  0.292
  Li7089  Li1+  0.950  0.552  0.003  0.292
  Li3987  Li1+  0.450  0.540  0.494  0.292
  Li3745  Li1+  0.496  0.267  0.650  0.293
  Li2940  Li1+  0.360  0.854  0.182  0.293
  Li5733  Li1+  0.698  0.500  0.847  0.293
  Li3350  Li1+  0.446  0.046  0.472  0.293
  Li1155  Li1+  0.004  0.792  0.750  0.293
  Li1674  Li1+  0.229  0.150  0.389  0.293
  Li7845  Li1+  0.898  0.900  0.447  0.294
  Li2364  Li1+  0.360  0.454  0.382  0.294
  Li6170  Li1+  0.652  0.856  0.232  0.294
  Li5541  Li1+  0.698  0.500  0.247  0.294
  Li4180  Li1+  0.446  0.756  0.150  0.294
  Li4182  Li1+  0.446  0.646  0.072  0.295
  Li4848  Li1+  0.748  0.150  0.156  0.295
  Li5287  Li1+  0.694  0.352  0.581  0.295
  Li5688  Li1+  0.748  0.450  0.626  0.295
  Li1501  Li1+  0.048  0.998  0.681  0.295
  Li3418  Li1+  0.452  0.056  0.632  0.295
  Li2591  Li1+  0.250  0.710  0.021  0.295
  Li5491  Li1+  0.748  0.565  0.014  0.295
  Li4694  Li1+  0.446  0.846  0.672  0.295
  Li7819  Li1+  0.998  0.825  0.450  0.296
  Li2101  Li1+  0.346  0.335  0.547  0.296
  Li6506  Li1+  0.950  0.054  0.371  0.296
  Li4144  Li1+  0.548  0.550  0.956  0.296
  Li3045  Li1+  0.298  0.900  0.447  0.296
  Li5841  Li1+  0.798  0.600  0.251  0.296
  Li4414  Li1+  0.548  0.740  0.746  0.296
  Li2869  Li1+  0.346  0.735  0.947  0.297
  Li4059  Li1+  0.448  0.552  0.601  0.297
  Li3598  Li1+  0.598  0.392  0.247  0.297
  Li1151  Li1+  0.169  0.750  0.589  0.297
  Li5887  Li1+  0.769  0.750  0.389  0.297
  Li5442  Li1+  0.623  0.400  0.014  0.297
  Li560  Li1+  0.148  0.350  0.756  0.297
  Li6610  Li1+  0.848  0.008  0.682  0.298
  Li2048  Li1+  0.381  0.240  0.251  0.298
  Li7888  Li1+  0.998  0.898  0.786  0.298
  Li5032  Li1+  0.698  0.110  0.651  0.298
  Li5070  Li1+  0.798  0.192  0.847  0.298
  Li4569  Li1+  0.450  0.831  0.211  0.299
  Li466  Li1+  0.048  0.208  0.482  0.299
  Li672  Li1+  0.054  0.452  0.169  0.299
  Li4018  Li1+  0.548  0.437  0.415  0.299
  Li5588  Li1+  0.646  0.556  0.550  0.299
  Li5672  Li1+  0.698  0.510  0.651  0.299
  Li5258  Li1+  0.629  0.350  0.589  0.299
  Li951  Li1+  0.148  0.581  0.879  0.299
  Li4665  Li1+  0.552  0.844  0.469  0.299
  Li4363  Li1+  0.598  0.625  0.650  0.300
  Li1717  Li1+  0.346  0.135  0.347  0.300
  Li7230  Li1+  0.948  0.540  0.546  0.300
  Li5755  Li1+  0.748  0.404  0.882  0.300
  Li1461  Li1+  0.146  0.935  0.547  0.301
  Li4042  Li1+  0.429  0.550  0.789  0.301
  Li3986  Li1+  0.448  0.408  0.482  0.301
  Li1013  Li1+  0.146  0.735  0.147  0.301
  Li1317  Li1+  0.098  0.900  0.047  0.301
  Li7449  Li1+  0.850  0.631  0.211  0.301
  Li2390  Li1+  0.246  0.446  0.472  0.301
  Li7909  Li1+  0.898  0.900  0.647  0.301
  Li2950  Li1+  0.354  0.844  0.322  0.301
  Li5472  Li1+  0.654  0.452  0.169  0.301
  Li6063  Li1+  0.748  0.742  0.893  0.302
  Li2391  Li1+  0.248  0.462  0.489  0.302
  Li1276  Li1+  0.160  0.654  0.982  0.302
  Li767  Li1+  0.169  0.550  0.389  0.302
  Li6975  Li1+  0.969  0.350  0.789  0.302
  Li4625  Li1+  0.598  0.800  0.451  0.302
  Li6341  Li1+  0.648  0.842  0.928  0.302
  Li5463  Li1+  0.648  0.462  0.089  0.302
  Li2684  Li1+  0.360  0.654  0.382  0.302
  Li6090  Li1+  0.629  0.950  0.189  0.303
  Li241  Li1+  0.150  0.152  0.603  0.303
  Li3855  Li1+  0.442  0.454  0.183  0.303
  Li3257  Li1+  0.552  0.044  0.069  0.303
  Li1325  Li1+  0.146  0.844  0.114  0.303
  Li1923  Li1+  0.204  0.392  0.150  0.303
  Li2741  Li1+  0.346  0.735  0.547  0.304
  Li6927  Li1+  0.842  0.254  0.783  0.304
  Li1948  Li1+  0.250  0.350  0.156  0.304
  Li6078  Li1+  0.748  0.740  0.946  0.304
  Li7619  Li1+  0.804  0.792  0.950  0.304
  Li391  Li1+  0.146  0.348  0.247  0.304
  Li6804  Li1+  0.846  0.356  0.350  0.304
  Li7676  Li1+  0.960  0.654  0.982  0.304
  Li5874  Li1+  0.748  0.637  0.215  0.305
  Li7324  Li1+  0.850  0.550  0.956  0.305
  Li5553  Li1+  0.750  0.552  0.203  0.305
  Li21  Li1+  0.050  0.106  0.019  0.305
  Li7021  Li1+  0.946  0.244  0.914  0.305
  Li3397  Li1+  0.448  0.042  0.728  0.306
  Li353  Li1+  0.096  0.267  0.050  0.306
  Li2611  Li1+  0.348  0.765  0.014  0.306
  Li1362  Li1+  0.048  0.808  0.282  0.306
  Li1265  Li1+  0.150  0.752  0.803  0.307
  Li5075  Li1+  0.650  0.140  0.894  0.307
  Li2076  Li1+  0.250  0.350  0.556  0.307
  Li3583  Li1+  0.569  0.350  0.189  0.307
  Li1017  Li1+  0.152  0.644  0.069  0.307
  Li6550  Li1+  0.846  0.046  0.472  0.307
  Li4854  Li1+  0.752  0.146  0.140  0.307
  Li5552  Li1+  0.748  0.550  0.356  0.307
  Li6324  Li1+  0.758  0.821  0.749  0.307
  Li687  Li1+  0.148  0.542  0.093  0.307
  Li6904  Li1+  0.948  0.250  0.426  0.308
  Li3570  Li1+  0.548  0.238  0.015  0.308
  Li2272  Li1+  0.254  0.452  0.169  0.308
  Li6938  Li1+  0.852  0.256  0.632  0.308
  Li4444  Li1+  0.450  0.750  0.956  0.308
  Li1275  Li1+  0.148  0.604  0.882  0.308
  Li1734  Li1+  0.354  0.044  0.522  0.308
  Li2324  Li1+  0.246  0.556  0.350  0.309
  Li459  Li1+  0.198  0.225  0.450  0.309
  Li182  Li1+  0.152  0.146  0.540  0.309
  Li7990  Li1+  0.952  0.946  0.940  0.309
  Li4766  Li1+  0.456  0.842  0.914  0.310
  Li7545  Li1+  0.952  0.644  0.469  0.310
  Li5949  Li1+  0.750  0.717  0.418  0.310
  Li492  Li1+  0.150  0.262  0.488  0.310
  Li2061  Li1+  0.200  0.296  0.488  0.310
  Li2293  Li1+  0.346  0.535  0.147  0.310
  Li4123  Li1+  0.448  0.552  0.801  0.310
  Li3675  Li1+  0.448  0.352  0.401  0.310
  Li4516  Li1+  0.494  0.900  0.149  0.310
  Li1751  Li1+  0.248  0.062  0.489  0.310
  Li7572  Li1+  0.846  0.756  0.750  0.310
  Li6008  Li1+  0.748  0.650  0.626  0.311
  Li1824  Li1+  0.254  0.052  0.769  0.311
  Li7015  Li1+  0.894  0.352  0.981  0.311
  Li5253  Li1+  0.648  0.242  0.528  0.311
  Li3062  Li1+  0.352  0.946  0.540  0.311
  Li6223  Li1+  0.642  0.854  0.583  0.312
  Li5982  Li1+  0.656  0.642  0.714  0.312
  Li5914  Li1+  0.652  0.656  0.432  0.312
  Li5752  Li1+  0.748  0.450  0.826  0.313
  Li2182  Li1+  0.354  0.244  0.922  0.313
  Li3193  Li1+  0.352  0.844  0.869  0.313
  Li3714  Li1+  0.423  0.200  0.614  0.313
  Li2367  Li1+  0.369  0.550  0.389  0.313
  Li3069  Li1+  0.350  0.917  0.418  0.313
  Li4473  Li1+  0.552  0.644  0.869  0.313
  Li2485  Li1+  0.346  0.535  0.747  0.313
  Li6576  Li1+  0.948  0.150  0.556  0.314
  Li2894  Li1+  0.398  0.992  0.047  0.314
  Li2243  Li1+  0.204  0.592  0.150  0.314
  Li7462  Li1+  0.900  0.796  0.313  0.314
  Li2718  Li1+  0.256  0.642  0.514  0.314
  Li7996  Li1+  0.960  0.854  0.982  0.314
  Li4776  Li1+  0.498  0.910  0.851  0.315
  Li2964  Li1+  0.246  0.956  0.350  0.315
  Li3567  Li1+  0.548  0.342  0.093  0.315
  Li7989  Li1+  0.946  0.935  0.947  0.315
  Li6362  Li1+  0.652  0.856  0.832  0.315
  Li6847  Li1+  0.969  0.350  0.389  0.315
  Li4427  Li1+  0.598  0.625  0.850  0.315
  Li7749  Li1+  0.848  0.842  0.328  0.315
  Li6070  Li1+  0.752  0.746  0.940  0.315
  Li6367  Li1+  0.650  0.910  0.821  0.316
  Li6360  Li1+  0.652  0.969  0.814  0.316
  Li7442  Li1+  0.848  0.608  0.282  0.316
  Li1230  Li1+  0.198  0.792  0.847  0.316
  Li4197  Li1+  0.498  0.700  0.047  0.316
  Li7807  Li1+  0.969  0.950  0.389  0.316
  Li6892  Li1+  0.950  0.262  0.488  0.316
  Li4465  Li1+  0.550  0.752  0.803  0.316
  Li1243  Li1+  0.048  0.752  0.801  0.316
  Li7364  Li1+  0.800  0.623  0.182  0.316
  Li7520  Li1+  0.854  0.652  0.569  0.316
  Li3671  Li1+  0.448  0.262  0.489  0.316
  Li3906  Li1+  0.423  0.400  0.214  0.317
  Li2225  Li1+  0.350  0.352  0.803  0.317
  Li7450  Li1+  0.852  0.656  0.232  0.317
  Li7342  Li1+  0.950  0.479  0.814  0.317
  Li1609  Li1+  0.206  0.142  0.115  0.318
  Li4489  Li1+  0.406  0.942  0.115  0.318
  Li2720  Li1+  0.254  0.652  0.569  0.318
  Li2139  Li1+  0.248  0.352  0.601  0.318
  Li7804  Li1+  0.960  0.854  0.382  0.318
  Li5182  Li1+  0.748  0.340  0.146  0.318
  Li1690  Li1+  0.252  0.056  0.232  0.318
  Li7254  Li1+  0.846  0.446  0.672  0.319
  Li1783  Li1+  0.348  0.181  0.479  0.319
  Li4884  Li1+  0.646  0.156  0.350  0.319
  Li6154  Li1+  0.629  0.950  0.389  0.319
  Li4896  Li1+  0.654  0.052  0.369  0.319
  Li7008  Li1+  0.854  0.252  0.969  0.319
  Li5149  Li1+  0.648  0.398  0.081  0.320
  Li6801  Li1+  0.998  0.200  0.251  0.320
  Li3573  Li1+  0.546  0.335  0.147  0.320
  Li1697  Li1+  0.296  0.067  0.250  0.320
  Li4502  Li1+  0.446  0.846  0.072  0.320
  Li1535  Li1+  0.169  0.950  0.789  0.320
  Li3903  Li1+  0.569  0.550  0.189  0.320
  Li7195  Li1+  0.848  0.552  0.401  0.321
  Li4988  Li1+  0.760  0.054  0.582  0.321
  Li6304  Li1+  0.654  0.852  0.769  0.321
  Li2624  Li1+  0.381  0.640  0.051  0.321
  Li7221  Li1+  0.946  0.535  0.547  0.321
  Li5245  Li1+  0.750  0.317  0.218  0.321
  Li1649  Li1+  0.350  0.152  0.003  0.321
  Li7144  Li1+  0.898  0.510  0.251  0.322
  Li1029  Li1+  0.048  0.642  0.328  0.322
  Li693  Li1+  0.146  0.535  0.147  0.322
  Li7705  Li1+  0.850  0.831  0.011  0.322
  Li3509  Li1+  0.546  0.135  0.947  0.322
  Li164  Li1+  0.094  0.100  0.549  0.322
  Li5406  Li1+  0.656  0.242  0.914  0.322
  Li5223  Li1+  0.694  0.352  0.381  0.323
  Li2447  Li1+  0.242  0.454  0.783  0.323
  Li7902  Li1+  0.856  0.842  0.714  0.323
  Li7925  Li1+  0.946  0.935  0.747  0.323
  Li2126  Li1+  0.398  0.392  0.647  0.323
  Li7102  Li1+  0.948  0.540  0.146  0.324
  Li5482  Li1+  0.750  0.454  0.171  0.324
  Li6286  Li1+  0.798  0.992  0.647  0.324
  Li1828  Li1+  0.294  0.100  0.749  0.324
  Li2677  Li1+  0.346  0.735  0.347  0.324
  Li6859  Li1+  0.998  0.225  0.450  0.325
  Li6937  Li1+  0.850  0.231  0.611  0.325
  Li1765  Li1+  0.298  0.100  0.447  0.325
  Li7001  Li1+  0.850  0.231  0.811  0.325
  Li3529  Li1+  0.406  0.342  0.115  0.325
  Li4917  Li1+  0.746  0.135  0.347  0.325
  Li4016  Li1+  0.548  0.550  0.556  0.325
  Li5652  Li1+  0.646  0.556  0.750  0.325
  Li2058  Li1+  0.229  0.350  0.589  0.326
  Li1309  Li1+  0.048  0.998  0.081  0.326
  Li4392  Li1+  0.498  0.710  0.651  0.326
  Li20  Li1+  0.046  0.156  0.150  0.326
  Li5366  Li1+  0.752  0.346  0.740  0.326
  Li3105  Li1+  0.296  0.867  0.650  0.326
  Li531  Li1+  0.050  0.340  0.694  0.326
  Li6524  Li1+  0.960  0.054  0.382  0.327
  Li5797  Li1+  0.698  0.700  0.047  0.327
  Li2166  Li1+  0.352  0.346  0.740  0.327
  Li5814  Li1+  0.752  0.746  0.140  0.327
  Li2961  Li1+  0.398  0.800  0.251  0.327
  Li6834  Li1+  0.948  0.237  0.215  0.327
  Li4331  Li1+  0.529  0.746  0.507  0.328
  Li4260  Li1+  0.494  0.700  0.349  0.328
  Li2605  Li1+  0.346  0.644  0.114  0.328
  Li1881  Li1+  0.250  0.031  0.811  0.329
  Li1526  Li1+  0.152  0.946  0.740  0.329
  Li7080  Li1+  0.898  0.510  0.051  0.329
  Li2683  Li1+  0.348  0.604  0.282  0.330
  Li22  Li1+  0.046  0.046  0.072  0.330
  Li3727  Li1+  0.442  0.254  0.783  0.331
  Li5429  Li1+  0.746  0.335  0.947  0.331
  Li6217  Li1+  0.606  0.942  0.515  0.331
  Li406  Li1+  0.046  0.246  0.272  0.331
  Li6384  Li1+  0.748  0.950  0.956  0.331
  Li1125  Li1+  0.098  0.700  0.447  0.331
  Li3537  Li1+  0.598  0.200  0.051  0.332
  Li5507  Li1+  0.604  0.592  0.350  0.332
  Li5046  Li1+  0.752  0.146  0.740  0.332
  Li502  Li1+  0.152  0.346  0.540  0.332
  Li2349  Li1+  0.346  0.444  0.314  0.332
  Li1448  Li1+  0.098  0.910  0.451  0.332
  Li2355  Li1+  0.348  0.565  0.214  0.332
  Li6278  Li1+  0.754  0.844  0.722  0.333
  Li5255  Li1+  0.746  0.348  0.447  0.333
  Li4446  Li1+  0.456  0.642  0.914  0.333
  Li4337  Li1+  0.550  0.752  0.403  0.333
  Li303  Li1+  0.148  0.142  0.893  0.333
  Li6019  Li1+  0.604  0.792  0.950  0.333
  Li4947  Li1+  0.650  0.140  0.494  0.334
  Li7664  Li1+  0.948  0.750  0.956  0.334
  Li5989  Li1+  0.698  0.700  0.647  0.334
  Li4408  Li1+  0.548  0.650  0.626  0.335
  Li5241  Li1+  0.752  0.244  0.269  0.335
  Li222  Li1+  0.056  0.042  0.714  0.335
  Li4756  Li1+  0.446  0.956  0.950  0.335
  Li6774  Li1+  0.952  0.346  0.140  0.335
  Li5790  Li1+  0.656  0.642  0.114  0.335
  Li6799  Li1+  0.842  0.254  0.383  0.335
  Li4789  Li1+  0.546  0.935  0.947  0.336
  Li7641  Li1+  0.850  0.631  0.811  0.336
  Li1946  Li1+  0.252  0.256  0.032  0.336
  Li7979  Li1+  0.929  0.946  0.907  0.336
  Li1145  Li1+  0.152  0.644  0.469  0.336
  Li5409  Li1+  0.696  0.267  0.850  0.336
  Li5686  Li1+  0.752  0.546  0.740  0.337
  Li6737  Li1+  0.998  0.200  0.051  0.337
  Li4890  Li1+  0.652  0.056  0.232  0.337
  Li5854  Li1+  0.656  0.642  0.314  0.337
  Li4431  Li1+  0.442  0.654  0.983  0.337
  Li1121  Li1+  0.096  0.667  0.450  0.337
  Li2511  Li1+  0.242  0.454  0.983  0.337
  Li5298  Li1+  0.748  0.237  0.415  0.338
  Li2933  Li1+  0.346  0.935  0.147  0.338
  Li1873  Li1+  0.398  -0.000  0.851  0.338
  Li4863  Li1+  0.769  0.150  0.189  0.338
  Li5710  Li1+  0.798  0.592  0.847  0.338
  Li346  Li1+  0.052  0.256  0.032  0.338
  Li3149  Li1+  0.200  0.896  0.888  0.338
  Li3606  Li1+  0.446  0.246  0.272  0.339
  Li5496  Li1+  0.748  0.450  0.026  0.339
  Li2184  Li1+  0.250  0.350  0.849  0.340
  Li7720  Li1+  0.898  0.910  0.051  0.340
  Li3232  Li1+  0.454  0.052  0.169  0.340
  Li7453  Li1+  0.848  0.798  0.281  0.340
  Li4820  Li1+  0.646  0.156  0.150  0.340
  Li173  Li1+  0.146  0.044  0.514  0.340
  Li2836  Li1+  0.246  0.756  0.950  0.340
  Li3281  Li1+  0.598  -0.000  0.251  0.340
  Li7673  Li1+  0.952  0.644  0.869  0.340
  Li7611  Li1+  0.948  0.604  0.682  0.340
  Li5839  Li1+  0.642  0.654  0.383  0.340
  Li5487  Li1+  0.748  0.542  0.093  0.341
  Li4239  Li1+  0.442  0.654  0.383  0.341
  Li3985  Li1+  0.598  0.400  0.451  0.341
  Li6112  Li1+  0.654  0.852  0.169  0.341
  Li4360  Li1+  0.450  0.750  0.649  0.342
  Li33  Li1+  0.096  0.067  0.050  0.342
  Li4929  Li1+  0.779  -0.000  0.417  0.342
  Li7798  Li1+  0.952  0.946  0.340  0.342
  Li6810  Li1+  0.852  0.256  0.232  0.342
  Li3552  Li1+  0.454  0.252  0.169  0.343
  Li5834  Li1+  0.629  0.750  0.389  0.343
  Li5304  Li1+  0.748  0.250  0.426  0.343
  Li6058  Li1+  0.750  0.654  0.971  0.343
  Li1999  Li1+  0.242  0.254  0.383  0.343
  Li7454  Li1+  0.856  0.642  0.314  0.343
  Li2206  Li1+  0.256  0.242  0.914  0.343
  Li3407  Li1+  0.442  0.054  0.783  0.343
  Li7597  Li1+  0.946  0.644  0.714  0.344
  Li5212  Li1+  0.650  0.350  0.356  0.344
  Li5869  Li1+  0.746  0.644  0.314  0.344
  Li4236  Li1+  0.417  0.642  0.253  0.344
  Li2445  Li1+  0.200  0.496  0.688  0.344
  Li7669  Li1+  0.946  0.735  0.947  0.344
  Li1369  Li1+  0.050  0.831  0.211  0.344
  Li1300  Li1+  0.046  0.956  0.150  0.344
  Li6298  Li1+  0.652  0.856  0.632  0.344
  Li6420  Li1+  0.846  0.156  0.150  0.344
  Li4149  Li1+  0.546  0.535  0.947  0.344
  Li4640  Li1+  0.454  0.852  0.569  0.345
  Li6383  Li1+  0.748  0.942  0.893  0.345
  Li18  Li1+  0.048  0.008  0.082  0.345
  Li1030  Li1+  0.154  0.644  0.322  0.345
  Li5534  Li1+  0.656  0.442  0.314  0.345
  Li2641  Li1+  0.398  0.600  0.251  0.346
  Li7375  Li1+  0.842  0.654  0.183  0.346
  Li5694  Li1+  0.748  0.540  0.746  0.346
  Li7012  Li1+  0.894  0.300  0.949  0.346
  Li3595  Li1+  0.598  0.225  0.250  0.346
  Li2059  Li1+  0.398  0.225  0.450  0.347
  Li4598  Li1+  0.552  0.946  0.340  0.347
  Li1937  Li1+  0.398  0.200  0.051  0.347
  Li5240  Li1+  0.748  0.250  0.226  0.347
  Li6918  Li1+  0.954  0.244  0.722  0.347
  Li6492  Li1+  0.850  0.150  0.356  0.347
  Li1363  Li1+  0.050  0.940  0.294  0.348
  Li2642  Li1+  0.248  0.608  0.282  0.348
  Li822  Li1+  0.152  0.546  0.540  0.348
  Li6396  Li1+  0.760  0.854  0.982  0.348
  Li3933  Li1+  0.448  0.598  0.281  0.348
  Li3843  Li1+  0.404  0.592  0.150  0.348
  Li54  Li1+  0.152  0.146  0.140  0.349
  Li3610  Li1+  0.452  0.256  0.232  0.349
  Li7999  Li1+  0.969  0.950  0.989  0.349
  Li3249  Li1+  0.550  0.152  0.003  0.349
  Li5220  Li1+  0.694  0.300  0.349  0.349
  Li3575  Li1+  0.548  0.381  0.079  0.349
  Li6363  Li1+  0.648  0.952  0.801  0.349
  Li6201  Li1+  0.752  0.844  0.269  0.350
  Li5460  Li1+  0.646  0.556  0.150  0.350
  Li2415  Li1+  0.348  0.542  0.493  0.350
  Li1462  Li1+  0.152  0.946  0.540  0.350
  Li7349  Li1+  0.946  0.535  0.947  0.350
  Li2249  Li1+  0.206  0.542  0.115  0.350
  Li2826  Li1+  0.229  0.750  0.989  0.351
  Li4512  Li1+  0.454  0.852  0.169  0.351
  Li3343  Li1+  0.442  0.054  0.583  0.351
  Li5101  Li1+  0.746  0.044  0.914  0.351
  Li2197  Li1+  0.250  0.306  0.819  0.351
  Li905  Li1+  0.006  0.542  0.915  0.352
  Li5497  Li1+  0.752  0.444  0.069  0.352
  Li3782  Li1+  0.554  0.244  0.922  0.352
  Li3192  Li1+  0.348  0.850  0.826  0.352
  Li4207  Li1+  0.548  0.742  0.093  0.352
  Li7147  Li1+  0.929  0.546  0.307  0.353
  Li896  Li1+  0.181  0.440  0.651  0.353
  Li3744  Li1+  0.454  0.252  0.769  0.353
  Li2486  Li1+  0.352  0.546  0.740  0.353
  Li306  Li1+  0.148  0.037  0.815  0.353
  Li6679  Li1+  0.848  0.062  0.889  0.354
  Li266  Li1+  0.029  0.150  0.989  0.354
  Li4692  Li1+  0.446  0.956  0.750  0.354
  Li6099  Li1+  0.650  0.940  0.094  0.354
  Li3482  Li1+  0.452  0.056  0.832  0.354
  Li6329  Li1+  0.752  0.844  0.669  0.354
  Li1084  Li1+  0.160  0.654  0.382  0.354
  Li1542  Li1+  0.154  0.844  0.922  0.355
  Li154  Li1+  0.052  0.056  0.432  0.355
  Li79  Li1+  0.042  0.054  0.383  0.355
  Li2157  Li1+  0.346  0.244  0.714  0.356
  Li6632  Li1+  0.898  0.110  0.651  0.356
  Li4853  Li1+  0.746  0.135  0.147  0.356
  Li1782  Li1+  0.352  0.146  0.540  0.356
  Li49  Li1+  0.150  0.152  0.003  0.357
  Li690  Li1+  0.148  0.438  0.015  0.357
  Li1453  Li1+  0.146  0.844  0.514  0.357
  Li4190  Li1+  0.456  0.642  0.114  0.357
  Li533  Li1+  0.050  0.306  0.619  0.357
  Li43  Li1+  0.129  0.146  0.107  0.357
  Li15  Li1+  0.042  0.054  0.183  0.357
  Li3601  Li1+  0.598  0.200  0.251  0.357
  Li6757  Li1+  0.898  0.300  0.047  0.357
  Li3083  Li1+  0.398  0.825  0.650  0.357
  Li5877  Li1+  0.746  0.735  0.347  0.357
  Li3334  Li1+  0.554  0.044  0.522  0.357
  Li2133  Li1+  0.250  0.306  0.619  0.358
  Li5935  Li1+  0.748  0.742  0.493  0.358
  Li5665  Li1+  0.696  0.467  0.650  0.358
  Li876  Li1+  0.150  0.462  0.688  0.358
  Li5936  Li1+  0.748  0.750  0.556  0.358
  Li6203  Li1+  0.748  0.804  0.282  0.358
  Li1953  Li1+  0.296  0.267  0.050  0.358
  Li6315  Li1+  0.729  0.946  0.707  0.359
  Li4798  Li1+  0.548  0.940  0.946  0.359
  Li2852  Li1+  0.294  0.700  0.949  0.359
  Li3809  Li1+  0.496  0.267  0.850  0.359
  Li846  Li1+  0.198  0.592  0.647  0.359
  Li3510  Li1+  0.552  0.146  0.940  0.359
  Li2124  Li1+  0.217  0.242  0.653  0.359
  Li4690  Li1+  0.448  0.808  0.682  0.359
  Li2848  Li1+  0.254  0.652  0.969  0.359
  Li2678  Li1+  0.352  0.746  0.340  0.360
  Li2191  Li1+  0.242  0.254  0.983  0.360
  Li5741  Li1+  0.746  0.444  0.914  0.360
  Li7121  Li1+  0.998  0.400  0.251  0.360
  Li4367  Li1+  0.442  0.654  0.783  0.360
  Li4597  Li1+  0.546  0.935  0.347  0.360
  Li1520  Li1+  0.148  0.950  0.756  0.360
  Li505  Li1+  0.152  0.244  0.469  0.360
  Li2809  Li1+  0.352  0.644  0.669  0.361
  Li3526  Li1+  0.554  0.244  0.122  0.361
  Li6110  Li1+  0.656  0.842  0.114  0.361
  Li737  Li1+  0.096  0.467  0.250  0.361
  Li3026  Li1+  0.248  0.808  0.482  0.361
  Li246  Li1+  0.152  0.146  0.740  0.362
  Li3844  Li1+  0.400  0.423  0.182  0.362
  Li3317  Li1+  0.546  0.135  0.347  0.362
  Li7045  Li1+  0.848  0.442  0.128  0.362
  Li1114  Li1+  0.052  0.656  0.432  0.362
  Li7582  Li1+  0.856  0.642  0.714  0.362
  Li7264  Li1+  0.854  0.452  0.769  0.362
  Li6301  Li1+  0.648  0.998  0.681  0.362
  Li579  Li1+  0.004  0.392  0.950  0.362
  Li7189  Li1+  0.850  0.506  0.419  0.363
  Li4742  Li1+  0.554  0.844  0.922  0.363
  Li1313  Li1+  0.096  0.867  0.050  0.363
  Li3211  Li1+  0.598  0.025  0.050  0.363
  Li2165  Li1+  0.346  0.335  0.747  0.363
  Li5040  Li1+  0.748  0.150  0.756  0.363
  Li7864  Li1+  0.948  0.850  0.426  0.364
  Li3395  Li1+  0.404  0.192  0.750  0.364
  Li4052  Li1+  0.446  0.556  0.750  0.364
  Li4205  Li1+  0.546  0.644  0.114  0.364
  Li3559  Li1+  0.494  0.352  0.181  0.364
  Li5261  Li1+  0.600  0.296  0.488  0.364
  Li4533  Li1+  0.546  0.935  0.147  0.365
  Li7516  Li1+  0.850  0.750  0.556  0.365
  Li3419  Li1+  0.448  0.152  0.601  0.365
  Li5657  Li1+  0.650  0.431  0.611  0.365
  Li3166  Li1+  0.256  0.842  0.914  0.366
  Li2014  Li1+  0.256  0.242  0.314  0.366
  Li6517  Li1+  0.946  0.135  0.347  0.366
  Li1310  Li1+  0.056  0.842  0.114  0.366
  Li5518  Li1+  0.798  0.592  0.247  0.367
  Li4909  Li1+  0.746  0.044  0.314  0.367
  Li6837  Li1+  0.946  0.335  0.347  0.367
  Li3553  Li1+  0.496  0.267  0.050  0.367
  Li3710  Li1+  0.548  0.340  0.546  0.367
  Li3608  Li1+  0.452  0.369  0.214  0.368
  Li7789  Li1+  0.946  0.844  0.314  0.368
  Li7897  Li1+  0.850  0.831  0.611  0.368
  Li2849  Li1+  0.296  0.667  0.850  0.368
  Li1376  Li1+  0.054  0.852  0.369  0.368
  Li3036  Li1+  0.250  0.950  0.556  0.368
  Li3621  Li1+  0.498  0.300  0.247  0.368
  Li3214  Li1+  0.598  0.192  0.047  0.369
  Li7917  Li1+  0.946  0.844  0.714  0.369
  Li2934  Li1+  0.352  0.946  0.140  0.369
  Li831  Li1+  0.169  0.550  0.589  0.369
  Li1384  Li1+  0.098  0.910  0.251  0.369
  Li2446  Li1+  0.398  0.592  0.647  0.369
  Li3053  Li1+  0.346  0.844  0.514  0.369
  Li299  Li1+  0.129  0.146  0.907  0.369
  Li6878  Li1+  0.856  0.242  0.514  0.370
  Li6624  Li1+  0.854  0.052  0.769  0.370
  Li3983  Li1+  0.442  0.454  0.583  0.370
  Li4361  Li1+  0.406  0.742  0.715  0.371
  Li5082  Li1+  0.652  0.056  0.832  0.371
  Li3873  Li1+  0.496  0.467  0.050  0.371
  Li4238  Li1+  0.598  0.792  0.247  0.371
  Li7087  Li1+  0.948  0.542  0.093  0.371
  Li3612  Li1+  0.450  0.350  0.356  0.371
  Li1684  Li1+  0.246  0.156  0.350  0.372
  Li1812  Li1+  0.246  0.156  0.750  0.372
  Li6015  Li1+  0.769  0.750  0.789  0.372
  Li5997  Li1+  0.746  0.644  0.714  0.372
  Li3806  Li1+  0.456  0.242  0.914  0.372
  Li7656  Li1+  0.898  0.710  0.851  0.373
  Li5724  Li1+  0.650  0.550  0.956  0.373
  Li566  Li1+  0.152  0.346  0.740  0.373
  Li6214  Li1+  0.754  0.844  0.522  0.373
  Li949  Li1+  0.146  0.535  0.947  0.373
  Li3057  Li1+  0.350  0.952  0.403  0.374
  Li3539  Li1+  0.450  0.340  0.094  0.374
  Li7161  Li1+  0.952  0.444  0.269  0.374
  Li3668  Li1+  0.446  0.356  0.550  0.374
  Li6753  Li1+  0.896  0.267  0.050  0.374
  Li2495  Li1+  0.369  0.550  0.789  0.374
  Li2516  Li1+  0.246  0.556  0.950  0.374
  Li2745  Li1+  0.352  0.644  0.469  0.375
  Li6305  Li1+  0.696  0.867  0.650  0.375
  Li2540  Li1+  0.350  0.462  0.888  0.375
  Li630  Li1+  0.152  0.346  0.940  0.375
  Li6871  Li1+  0.848  0.262  0.489  0.375
  Li5536  Li1+  0.654  0.452  0.369  0.375
  Li4507  Li1+  0.448  0.952  0.001  0.375
  Li7828  Li1+  0.846  0.956  0.550  0.375
  Li4271  Li1+  0.548  0.742  0.293  0.376
  Li7380  Li1+  0.846  0.756  0.150  0.376
  Li4709  Li1+  0.498  0.900  0.647  0.376
  Li7984  Li1+  0.948  0.950  0.956  0.376
  Li2850  Li1+  0.256  0.667  0.954  0.376
  Li6030  Li1+  0.798  0.792  0.847  0.376
  Li3557  Li1+  0.498  0.300  0.047  0.376
  Li6636  Li1+  0.950  0.062  0.688  0.376
  Li7249  Li1+  0.998  0.400  0.651  0.376
  Li7461  Li1+  0.898  0.700  0.247  0.376
  Li5937  Li1+  0.750  0.752  0.403  0.376
  Li6428  Li1+  0.850  0.150  0.156  0.376
  Li7281  Li1+  0.950  0.552  0.603  0.376
  Li5515  Li1+  0.798  0.425  0.250  0.376
  Li4047  Li1+  0.442  0.454  0.783  0.377
  Li974  Li1+  0.198  0.792  0.047  0.377
  Li7356  Li1+  0.960  0.454  0.982  0.377
  Li7891  Li1+  0.850  0.940  0.694  0.377
  Li6870  Li1+  0.846  0.246  0.472  0.377
  Li6069  Li1+  0.746  0.735  0.947  0.377
  Li6725  Li1+  0.848  0.242  0.128  0.377
  Li6094  Li1+  0.798  0.992  0.047  0.377
  Li7552  Li1+  0.981  0.640  0.451  0.378
  Li56  Li1+  0.148  0.050  0.026  0.378
  Li3476  Li1+  0.446  0.156  0.950  0.378
  Li4581  Li1+  0.498  0.900  0.247  0.378
  Li6300  Li1+  0.650  0.950  0.756  0.378
  Li2093  Li1+  0.346  0.244  0.514  0.378
  Li7423  Li1+  0.969  0.750  0.189  0.378
  Li6813  Li1+  0.848  0.398  0.281  0.378
  Li6731  Li1+  0.998  0.225  0.050  0.378
  Li1489  Li1+  0.198  0.800  0.651  0.379
  Li4856  Li1+  0.748  0.050  0.026  0.379
  Li1711  Li1+  0.348  0.142  0.293  0.379
  Li7439  Li1+  0.842  0.654  0.383  0.380
  Li7055  Li1+  0.842  0.454  0.183  0.380
  Li7013  Li1+  0.898  0.300  0.847  0.380
  Li4843  Li1+  0.729  0.146  0.107  0.380
  Li4882  Li1+  0.648  0.008  0.282  0.380
  Li6740  Li1+  0.846  0.356  0.150  0.380
  Li4064  Li1+  0.454  0.452  0.769  0.381
  Li7068  Li1+  0.850  0.550  0.156  0.381
  Li7814  Li1+  0.954  0.844  0.522  0.381
  Li941  Li1+  0.146  0.444  0.914  0.382
  Li7608  Li1+  0.948  0.650  0.626  0.382
  Li5007  Li1+  0.642  0.054  0.783  0.382
  Li2673  Li1+  0.350  0.752  0.203  0.382
  Li2246  Li1+  0.354  0.444  0.122  0.383
  Li700  Li1+  0.160  0.454  0.182  0.383
  Li1745  Li1+  0.398  -0.000  0.451  0.383
  Li1053  Li1+  0.048  0.798  0.281  0.383
  Li6406  Li1+  0.954  0.044  0.122  0.383
  Li7149  Li1+  0.946  0.444  0.314  0.383
  Li1152  Li1+  0.181  0.640  0.451  0.383
  Li1679  Li1+  0.242  0.054  0.383  0.383
  Li1328  Li1+  0.148  0.950  0.156  0.383
  Li2031  Li1+  0.348  0.342  0.293  0.383
  Li1563  Li1+  0.048  0.952  0.801  0.383
  Li859  Li1+  0.048  0.552  0.601  0.384
  Li5191  Li1+  0.746  0.348  0.247  0.384
  Li7955  Li1+  0.850  0.940  0.894  0.384
  Li2046  Li1+  0.348  0.340  0.346  0.385
  Li6197  Li1+  0.746  0.935  0.347  0.385
  Li4918  Li1+  0.752  0.146  0.340  0.385
  Li5696  Li1+  0.781  0.440  0.651  0.385
  Li1775  Li1+  0.348  0.142  0.493  0.385
  Li6671  Li1+  0.842  0.054  0.983  0.386
  Li3189  Li1+  0.346  0.935  0.947  0.386
  Li114  Li1+  0.148  0.037  0.215  0.387
  Li5502  Li1+  0.748  0.540  0.146  0.387
  Li4486  Li1+  0.554  0.844  0.122  0.387
  Li3064  Li1+  0.348  0.850  0.426  0.387
  Li3550  Li1+  0.456  0.242  0.114  0.387
  Li7792  Li1+  0.948  0.950  0.356  0.387
  Li1603  Li1+  0.204  0.192  0.150  0.387
  Li1212  Li1+  0.160  0.654  0.782  0.388
  Li3420  Li1+  0.450  0.150  0.756  0.388
  Li7840  Li1+  0.854  0.852  0.569  0.388
  Li7613  Li1+  0.950  0.717  0.618  0.388
  Li7599  Li1+  0.948  0.742  0.693  0.389
  Li1270  Li1+  0.152  0.746  0.940  0.389
  Li7130  Li1+  0.852  0.456  0.232  0.389
  Li877  Li1+  0.146  0.444  0.714  0.389
  Li3489  Li1+  0.496  0.067  0.850  0.389
  Li7600  Li1+  0.948  0.750  0.756  0.389
  Li2870  Li1+  0.352  0.746  0.940  0.389
  Li4729  Li1+  0.552  0.844  0.669  0.389
  Li7518  Li1+  0.856  0.642  0.514  0.389
  Li7302  Li1+  0.954  0.444  0.922  0.390
  Li3632  Li1+  0.548  0.350  0.356  0.390
  Li7119  Li1+  0.842  0.454  0.383  0.390
  Li3401  Li1+  0.406  0.142  0.715  0.390
  Li6969  Li1+  0.952  0.244  0.669  0.391
  Li5095  Li1+  0.694  0.152  0.981  0.391
  Li6832  Li1+  0.948  0.350  0.356  0.391
  Li2585  Li1+  0.250  0.631  0.011  0.391
  Li7134  Li1+  0.856  0.442  0.314  0.391
  Li7841  Li1+  0.896  0.867  0.450  0.392
  Li800  Li1+  0.054  0.452  0.569  0.392
  Li6531  Li1+  0.804  0.192  0.550  0.392
  Li286  Li1+  0.056  0.042  0.914  0.393
  Li2129  Li1+  0.398  0.200  0.651  0.393
  Li89  Li1+  0.050  0.031  0.211  0.394
  Li5713  Li1+  0.798  0.400  0.851  0.394
  Li5251  Li1+  0.604  0.392  0.550  0.394
  Li4208  Li1+  0.548  0.750  0.156  0.394
  Li1202  Li1+  0.148  0.637  0.615  0.394
  Li7024  Li1+  0.948  0.350  0.956  0.394
  Li5221  Li1+  0.698  0.300  0.247  0.395
  Li2967  Li1+  0.248  0.862  0.289  0.395
  Li1888  Li1+  0.254  0.052  0.969  0.395
  Li7976  Li1+  0.898  0.910  0.851  0.395
  Li2469  Li1+  0.298  0.500  0.647  0.395
  Li3893  Li1+  0.546  0.535  0.147  0.395
  Li2757  Li1+  0.248  0.642  0.728  0.395
  Li2707  Li1+  0.250  0.740  0.494  0.396
  Li6854  Li1+  0.954  0.244  0.522  0.396
  Li5439  Li1+  0.769  0.350  0.989  0.396
  Li4656  Li1+  0.548  0.950  0.556  0.396
  Li4273  Li1+  0.550  0.752  0.203  0.397
  Li3323  Li1+  0.548  0.004  0.282  0.398
  Li2176  Li1+  0.381  0.240  0.651  0.398
  Li1023  Li1+  0.169  0.750  0.189  0.398
  Li6369  Li1+  0.696  0.867  0.850  0.398
  Li6571  Li1+  0.929  0.146  0.507  0.398
  Li1599  Li1+  0.169  0.950  0.989  0.398
  Li1398  Li1+  0.152  0.946  0.340  0.399
  Li1629  Li1+  0.248  0.198  0.081  0.399
  Li3030  Li1+  0.246  0.846  0.472  0.399
  Li7329  Li1+  0.896  0.467  0.850  0.399
  Li463  Li1+  0.042  0.254  0.583  0.399
  Li5109  Li1+  0.746  0.135  0.947  0.400
  Li470  Li1+  0.046  0.246  0.472  0.400
  Li4122  Li1+  0.452  0.456  0.832  0.400
  Li5495  Li1+  0.748  0.581  0.079  0.400
  Li5173  Li1+  0.746  0.335  0.147  0.400
  Li2320  Li1+  0.398  0.498  0.386  0.400
  Li1834  Li1+  0.350  0.054  0.771  0.400
  Li7694  Li1+  0.998  0.992  0.047  0.401
  Li4188  Li1+  0.450  0.750  0.156  0.401
  Li6657  Li1+  0.979  -0.000  0.817  0.401
  Li1605  Li1+  0.248  0.042  0.128  0.401
  Li3168  Li1+  0.254  0.852  0.969  0.401
  Li6002  Li1+  0.748  0.637  0.615  0.401
  Li2545  Li1+  0.350  0.552  0.803  0.402
  Li3503  Li1+  0.548  0.142  0.893  0.403
  Li3826  Li1+  0.548  0.237  0.815  0.403
  Li5744  Li1+  0.748  0.550  0.956  0.403
  Li7231  Li1+  0.969  0.550  0.589  0.403
  Li3465  Li1+  0.406  0.142  0.915  0.403
  Li2145  Li1+  0.296  0.267  0.650  0.403
  Li3276  Li1+  0.417  0.042  0.253  0.403
  Li3702  Li1+  0.552  0.346  0.540  0.404
  Li3061  Li1+  0.346  0.935  0.547  0.404
  Li773  Li1+  0.048  0.442  0.528  0.404
  Li2986  Li1+  0.350  0.854  0.371  0.404
  Li7246  Li1+  0.998  0.592  0.647  0.405
  Li3924  Li1+  0.446  0.556  0.350  0.405
  Li2322  Li1+  0.248  0.408  0.282  0.405
  Li4901  Li1+  0.698  0.100  0.247  0.405
  Li2906  Li1+  0.252  0.856  0.032  0.405
  Li3765  Li1+  0.546  0.335  0.747  0.405
  Li5857  Li1+  0.696  0.667  0.250  0.405
  Li5165  Li1+  0.746  0.244  0.114  0.405
  Li2431  Li1+  0.369  0.550  0.589  0.406
  Li4550  Li1+  0.554  0.844  0.322  0.406
  Li3375  Li1+  0.548  0.142  0.493  0.406
  Li7213  Li1+  0.946  0.444  0.514  0.406
  Li3169  Li1+  0.296  0.867  0.850  0.406
  Li2731  Li1+  0.329  0.746  0.507  0.406
  Li5615  Li1+  0.748  0.542  0.493  0.407
  Li2134  Li1+  0.246  0.246  0.672  0.407
  Li7966  Li1+  0.856  0.842  0.914  0.407
  Li1150  Li1+  0.148  0.740  0.546  0.407
  Li3693  Li1+  0.546  0.244  0.514  0.407
  Li1904  Li1+  0.348  0.150  0.956  0.407
  Li7685  Li1+  0.848  0.842  0.128  0.407
  Li902  Li1+  0.154  0.444  0.922  0.408
  Li6100  Li1+  0.646  0.956  0.150  0.408
  Li5382  Li1+  0.754  0.244  0.922  0.408
  Li5263  Li1+  0.642  0.254  0.583  0.408
  Li6496  Li1+  0.854  0.052  0.369  0.409
  Li5462  Li1+  0.646  0.446  0.072  0.409
  Li3371  Li1+  0.529  0.146  0.507  0.409
  Li5152  Li1+  0.654  0.252  0.169  0.409
  Li7783  Li1+  0.894  0.952  0.381  0.409
  Li1350  Li1+  0.154  0.844  0.322  0.409
  Li5522  Li1+  0.648  0.408  0.282  0.409
  Li4838  Li1+  0.700  0.196  0.113  0.410
  Li3734  Li1+  0.446  0.246  0.672  0.410
  Li3800  Li1+  0.452  0.369  0.814  0.410
  Li965  Li1+  0.048  0.642  0.128  0.410
  Li6148  Li1+  0.600  0.823  0.382  0.411
  Li2096  Li1+  0.348  0.350  0.556  0.411
  Li753  Li1+  0.150  0.552  0.203  0.411
  Li6743  Li1+  0.848  0.262  0.089  0.411
  Li4667  Li1+  0.548  0.804  0.482  0.411
  Li5493  Li1+  0.746  0.535  0.147  0.411
  Li6150  Li1+  0.754  0.844  0.322  0.411
  Li1942  Li1+  0.246  0.246  0.072  0.412
  Li7478  Li1+  0.952  0.746  0.340  0.412
  Li360  Li1+  0.098  0.310  0.051  0.412
  Li869  Li1+  0.098  0.500  0.647  0.412
  Li1984  Li1+  0.381  0.240  0.051  0.412
  Li2040  Li1+  0.348  0.250  0.226  0.413
  Li4828  Li1+  0.650  0.150  0.156  0.413
  Li5280  Li1+  0.654  0.252  0.569  0.413
  Li1682  Li1+  0.248  0.008  0.282  0.413
  Li2200  Li1+  0.252  0.369  0.814  0.413
  Li6670  Li1+  0.998  0.192  0.847  0.414
  Li5170  Li1+  0.748  0.238  0.015  0.415
  Li4517  Li1+  0.498  0.900  0.047  0.415
  Li2150  Li1+  0.300  0.396  0.713  0.415
  Li7750  Li1+  0.954  0.844  0.322  0.415
  Li4320  Li1+  0.454  0.652  0.569  0.416
  Li4695  Li1+  0.448  0.862  0.689  0.416
  Li4351  Li1+  0.569  0.750  0.589  0.416
  Li5775  Li1+  0.642  0.654  0.183  0.417
  Li3602  Li1+  0.448  0.208  0.282  0.417
  Li3890  Li1+  0.548  0.438  0.015  0.417
  Li1401  Li1+  0.152  0.844  0.269  0.417
  Li2767  Li1+  0.242  0.654  0.783  0.418
  Li6789  Li1+  0.848  0.242  0.328  0.418
  Li7713  Li1+  0.896  0.867  0.050  0.418
  Li5014  Li1+  0.646  0.046  0.672  0.418
  Li1979  Li1+  0.348  0.204  0.082  0.419
  Li4287  Li1+  0.569  0.750  0.389  0.420
  Li5233  Li1+  0.750  0.352  0.203  0.420
  Li1613  Li1+  0.200  0.096  0.088  0.420
  Li5118  Li1+  0.748  0.140  0.946  0.420
  Li5  Li1+  0.048  0.042  0.128  0.420
  Li1968  Li1+  0.348  0.350  0.156  0.421
  Li5150  Li1+  0.656  0.242  0.114  0.422
  Li6893  Li1+  0.946  0.244  0.514  0.422
  Li1397  Li1+  0.146  0.935  0.347  0.422
  Li433  Li1+  0.150  0.352  0.203  0.422
  Li6924  Li1+  0.817  0.242  0.653  0.422
  Li3695  Li1+  0.548  0.342  0.493  0.422
  Li4321  Li1+  0.496  0.667  0.450  0.422
  Li6036  Li1+  0.646  0.756  0.950  0.423
  Li4978  Li1+  0.748  0.037  0.415  0.423
  Li1355  Li1+  0.198  0.825  0.250  0.423
  Li4933  Li1+  0.648  0.042  0.528  0.423
  Li6933  Li1+  0.850  0.306  0.619  0.423
  Li4302  Li1+  0.598  0.792  0.447  0.424
  Li5798  Li1+  0.700  0.796  0.113  0.424
  Li4024  Li1+  0.548  0.450  0.426  0.424
  Li6410  Li1+  0.829  0.150  0.189  0.424
  Li1709  Li1+  0.346  0.044  0.314  0.424
  Li4411  Li1+  0.548  0.604  0.682  0.425
  Li6570  Li1+  0.950  0.054  0.571  0.425
  Li2539  Li1+  0.329  0.546  0.907  0.426
  Li1626  Li1+  0.252  0.056  0.032  0.426
  Li3970  Li1+  0.423  0.400  0.414  0.426
  Li3284  Li1+  0.446  0.156  0.350  0.427
  Li1411  Li1+  0.004  0.992  0.550  0.427
  Li660  Li1+  0.046  0.556  0.150  0.427
  Li638  Li1+  0.148  0.340  0.946  0.427
  Li944  Li1+  0.148  0.550  0.956  0.427
  Li3126  Li1+  0.352  0.946  0.740  0.427
  Li2853  Li1+  0.298  0.700  0.847  0.428
  Li6689  Li1+  0.896  0.067  0.850  0.428
  Li1957  Li1+  0.298  0.300  0.047  0.428
  Li2095  Li1+  0.348  0.342  0.493  0.429
  Li6381  Li1+  0.746  0.844  0.914  0.429
  Li1334  Li1+  0.152  0.946  0.140  0.429
  Li5941  Li1+  0.746  0.735  0.547  0.429
  Li7049  Li1+  0.806  0.542  0.115  0.429
  Li2602  Li1+  0.350  0.654  0.171  0.429
  Li7210  Li1+  0.950  0.454  0.571  0.429
  Li1748  Li1+  0.246  0.156  0.550  0.429
  Li3451  Li1+  0.548  0.004  0.682  0.429
  Li1141  Li1+  0.146  0.735  0.547  0.430
  Li7026  Li1+  0.948  0.237  0.815  0.430
  Li5319  Li1+  0.746  0.348  0.647  0.430
  Li229  Li1+  0.098  0.100  0.647  0.430
  Li7481  Li1+  0.952  0.644  0.269  0.430
  Li5873  Li1+  0.750  0.752  0.203  0.430
  Li4186  Li1+  0.452  0.656  0.032  0.430
  Li7393  Li1+  0.896  0.667  0.050  0.430
  Li4873  Li1+  0.606  0.142  0.315  0.431
  Li1820  Li1+  0.250  0.150  0.756  0.431
  Li886  Li1+  0.152  0.546  0.740  0.432
  Li6350  Li1+  0.798  0.992  0.847  0.432
  Li2625  Li1+  0.379  0.600  0.217  0.432
  Li4675  Li1+  0.404  0.992  0.750  0.432
  Li1630  Li1+  0.256  0.042  0.114  0.432
  Li5190  Li1+  0.754  0.244  0.322  0.432
  Li2844  Li1+  0.250  0.750  0.956  0.433
  Li1438  Li1+  0.056  0.842  0.514  0.433
  Li7727  Li1+  0.948  0.942  0.093  0.433
  Li4826  Li1+  0.652  0.056  0.032  0.433
  Li504  Li1+  0.148  0.250  0.426  0.433
  Li1261  Li1+  0.146  0.644  0.914  0.433
  Li7060  Li1+  0.846  0.556  0.150  0.433
  Li3263  Li1+  0.569  0.150  0.189  0.433
  Li1845  Li1+  0.346  0.135  0.747  0.433
  Li3040  Li1+  0.254  0.852  0.569  0.434
  Li3333  Li1+  0.448  0.042  0.528  0.434
  Li2800  Li1+  0.348  0.750  0.756  0.434
  Li2531  Li1+  0.298  0.400  0.813  0.434
  Li2575  Li1+  0.242  0.654  0.183  0.434
  Li3954  Li1+  0.548  0.437  0.215  0.434
  Li1551  Li1+  0.042  0.854  0.983  0.434
  Li48  Li1+  0.148  0.150  0.156  0.435
  Li4530  Li1+  0.548  0.838  0.015  0.435
  Li4689  Li1+  0.598  0.800  0.651  0.435
  Li1430  Li1+  0.046  0.846  0.472  0.435
  Li568  Li1+  0.148  0.250  0.626  0.436
  Li1007  Li1+  0.148  0.742  0.093  0.436
  Li1733  Li1+  0.248  0.042  0.528  0.436
  Li1798  Li1+  0.354  0.044  0.722  0.436
  Li4503  Li1+  0.448  0.862  0.089  0.436
  Li6354  Li1+  0.648  0.808  0.882  0.437
  Li3485  Li1+  0.448  0.198  0.881  0.437
  Li1995  Li1+  0.398  0.225  0.250  0.437
  Li7494  Li1+  0.954  0.644  0.522  0.438
  Li3699  Li1+  0.548  0.365  0.414  0.438
  Li1222  Li1+  0.154  0.644  0.922  0.438
  Li697  Li1+  0.152  0.444  0.069  0.438
  Li3640  Li1+  0.548  0.250  0.226  0.438
  Li4943  Li1+  0.642  0.054  0.583  0.438
  Li6507  Li1+  0.929  0.146  0.307  0.439
  Li5856  Li1+  0.654  0.652  0.369  0.440
  Li3409  Li1+  0.598  -0.000  0.651  0.440
  Li271  Li1+  0.042  0.054  0.983  0.440
  Li4600  Li1+  0.548  0.850  0.226  0.440
  Li5557  Li1+  0.746  0.535  0.347  0.440
  Li5499  Li1+  0.748  0.404  0.082  0.440
  Li3028  Li1+  0.246  0.956  0.550  0.441
  Li5321  Li1+  0.606  0.342  0.715  0.441
  Li5025  Li1+  0.696  0.067  0.650  0.441
  Li515  Li1+  0.004  0.392  0.750  0.441
  Li1758  Li1+  0.256  0.042  0.514  0.441
  Li3206  Li1+  0.554  0.044  0.122  0.442
  Li2336  Li1+  0.254  0.452  0.369  0.442
  Li598  Li1+  0.046  0.246  0.872  0.442
  Li5276  Li1+  0.650  0.350  0.556  0.442
  Li3099  Li1+  0.248  0.952  0.601  0.442
  Li2294  Li1+  0.352  0.546  0.140  0.443
  Li437  Li1+  0.146  0.335  0.347  0.443
  Li7564  Li1+  0.817  0.642  0.653  0.443
  Li6000  Li1+  0.748  0.750  0.756  0.443
  Li7712  Li1+  0.854  0.852  0.169  0.443
  Li2907  Li1+  0.248  0.952  0.001  0.443
  Li696  Li1+  0.148  0.450  0.026  0.443
  Li252  Li1+  0.160  0.054  0.782  0.444
  Li47  Li1+  0.148  0.142  0.093  0.444
  Li1337  Li1+  0.152  0.844  0.069  0.444
  Li340  Li1+  0.046  0.356  0.150  0.444
  Li5664  Li1+  0.654  0.452  0.769  0.445
  Li6052  Li1+  0.694  0.700  0.949  0.445
  Li4620  Li1+  0.417  0.842  0.453  0.445
  Li5204  Li1+  0.646  0.356  0.350  0.445
  Li2383  Li1+  0.242  0.454  0.583  0.445
  Li7009  Li1+  0.896  0.267  0.850  0.445
  Li6006  Li1+  0.752  0.746  0.740  0.445
  Li793  Li1+  0.050  0.431  0.411  0.446
  Li5816  Li1+  0.748  0.650  0.026  0.446
  Li752  Li1+  0.148  0.550  0.356  0.446
  Li3803  Li1+  0.448  0.352  0.801  0.446
  Li5268  Li1+  0.646  0.356  0.550  0.446
  Li2417  Li1+  0.350  0.552  0.403  0.446
  Li7862  Li1+  0.952  0.946  0.540  0.447
  Li4436  Li1+  0.446  0.756  0.950  0.447
  Li6735  Li1+  0.842  0.254  0.183  0.447
  Li1628  Li1+  0.250  0.150  0.156  0.448
  Li3198  Li1+  0.348  0.940  0.946  0.448
  Li7004  Li1+  0.850  0.350  0.956  0.448
  Li2376  Li1+  0.250  0.550  0.449  0.448
  Li6033  Li1+  0.798  0.600  0.851  0.449
  Li2716  Li1+  0.250  0.750  0.556  0.449
  Li1532  Li1+  0.160  0.854  0.782  0.449
  Li255  Li1+  0.169  0.150  0.789  0.449
  Li7483  Li1+  0.948  0.604  0.282  0.449
  Li1643  Li1+  0.329  0.146  0.107  0.450
  Li7043  Li1+  0.804  0.592  0.150  0.450
  Li4644  Li1+  0.494  0.900  0.549  0.450
  Li939  Li1+  0.129  0.546  0.907  0.450
  Li1105  Li1+  0.198  0.600  0.451  0.450
  Li155  Li1+  0.048  0.152  0.401  0.451
  Li3796  Li1+  0.446  0.356  0.950  0.451
  Li894  Li1+  0.148  0.540  0.746  0.451
  Li5662  Li1+  0.656  0.442  0.714  0.451
  Li7059  Li1+  0.850  0.540  0.094  0.451
  Li4038  Li1+  0.554  0.444  0.722  0.452
  Li3798  Li1+  0.446  0.246  0.872  0.452
  Li3752  Li1+  0.498  0.310  0.651  0.452
  Li2822  Li1+  0.354  0.644  0.922  0.452
  Li2549  Li1+  0.346  0.535  0.947  0.453
  Li7307  Li1+  0.998  0.425  0.850  0.453
  Li5601  Li1+  0.696  0.467  0.450  0.453
  Li1185  Li1+  0.096  0.667  0.650  0.454
  Li7601  Li1+  0.950  0.752  0.603  0.454
  Li7525  Li1+  0.898  0.700  0.447  0.454
  Li5894  Li1+  0.754  0.644  0.522  0.455
  Li5532  Li1+  0.650  0.550  0.356  0.455
  Li6299  Li1+  0.648  0.952  0.601  0.455
  Li5295  Li1+  0.748  0.342  0.493  0.456
  Li1521  Li1+  0.150  0.952  0.603  0.456
  Li4977  Li1+  0.750  0.152  0.403  0.456
  Li4155  Li1+  0.548  0.404  0.882  0.456
  Li2913  Li1+  0.296  0.867  0.050  0.457
  Li6390  Li1+  0.752  0.946  0.940  0.457
  Li749  Li1+  0.146  0.444  0.314  0.458
  Li3548  Li1+  0.450  0.350  0.156  0.458
  Li2714  Li1+  0.252  0.656  0.432  0.458
  Li5137  Li1+  0.798  0.200  0.051  0.458
  Li2681  Li1+  0.352  0.644  0.269  0.458
  Li1094  Li1+  0.154  0.644  0.522  0.458
  Li7390  Li1+  0.856  0.642  0.114  0.459
  Li907  Li1+  0.198  0.425  0.850  0.459
  Li3261  Li1+  0.550  0.117  0.018  0.459
  Li1811  Li1+  0.250  0.140  0.694  0.459
  Li5125  Li1+  0.648  0.242  0.128  0.460
  Li7029  Li1+  0.946  0.335  0.947  0.460
  Li997  Li1+  0.098  0.700  0.047  0.461
  Li5078  Li1+  0.646  0.046  0.872  0.461
  Li4280  Li1+  0.548  0.650  0.226  0.461
  Li7735  Li1+  0.948  0.981  0.079  0.462
  Li6386  Li1+  0.748  0.837  0.815  0.462
  Li2255  Li1+  0.242  0.454  0.183  0.462
  Li6174  Li1+  0.656  0.842  0.314  0.462
  Li4185  Li1+  0.450  0.631  0.011  0.463
  Li1502  Li1+  0.056  0.842  0.714  0.463
  Li5852  Li1+  0.650  0.750  0.356  0.463
  Li3014  Li1+  0.354  0.844  0.522  0.463
  Li6853  Li1+  0.848  0.242  0.528  0.464
  Li4005  Li1+  0.498  0.500  0.447  0.464
  Li3633  Li1+  0.550  0.352  0.203  0.464
  Li5360  Li1+  0.748  0.350  0.756  0.464
  Li4074  Li1+  0.550  0.454  0.771  0.464
  Li6959  Li1+  0.948  0.342  0.693  0.464
  Li2169  Li1+  0.352  0.244  0.669  0.465
  Li2666  Li1+  0.350  0.654  0.371  0.466
  Li2811  Li1+  0.348  0.604  0.682  0.466
  Li6219  Li1+  0.798  0.825  0.450  0.467
  Li4210  Li1+  0.548  0.638  0.015  0.467
  Li858  Li1+  0.052  0.456  0.632  0.467
  Li7794  Li1+  0.948  0.837  0.215  0.467
  Li3109  Li1+  0.298  0.900  0.647  0.468
  Li7639  Li1+  0.848  0.662  0.889  0.468
  Li2422  Li1+  0.352  0.546  0.540  0.468
  Li7706  Li1+  0.852  0.856  0.032  0.468
  Li4773  Li1+  0.498  0.900  0.847  0.468
  Li2993  Li1+  0.350  0.952  0.203  0.468
  Li4495  Li1+  0.442  0.854  0.183  0.468
  Li3678  Li1+  0.456  0.242  0.514  0.468
  Li5419  Li1+  0.729  0.346  0.907  0.468
  Li6981  Li1+  0.848  0.242  0.928  0.468
  Li5565  Li1+  0.750  0.517  0.218  0.469
  Li3161  Li1+  0.250  0.831  0.811  0.469
  Li40  Li1+  0.098  0.110  0.051  0.469
  Li1553  Li1+  0.198  0.800  0.851  0.469
  Li3128  Li1+  0.348  0.850  0.626  0.469
  Li6649  Li1+  0.952  0.044  0.669  0.469
  Li1492  Li1+  0.046  0.956  0.750  0.470
  Li801  Li1+  0.096  0.467  0.450  0.471
  Li1750  Li1+  0.246  0.046  0.472  0.471
  Li1899  Li1+  0.329  0.146  0.907  0.471
  Li815  Li1+  0.148  0.542  0.493  0.471
  Li6554  Li1+  0.852  0.056  0.432  0.471
  Li577  Li1+  0.179  0.200  0.817  0.472
  Li5277  Li1+  0.648  0.398  0.481  0.472
  Li1253  Li1+  0.098  0.700  0.847  0.472
  Li744  Li1+  0.098  0.510  0.251  0.473
  Li2669  Li1+  0.346  0.644  0.314  0.473
  Li2551  Li1+  0.348  0.581  0.879  0.473
  Li3732  Li1+  0.446  0.356  0.750  0.473
  Li5106  Li1+  0.748  0.037  0.815  0.473
  Li4069  Li1+  0.498  0.500  0.647  0.474
  Li5544  Li1+  0.698  0.510  0.251  0.475
  Li1231  Li1+  0.042  0.654  0.983  0.475
  Li4242  Li1+  0.448  0.608  0.282  0.475
  Li5915  Li1+  0.648  0.752  0.401  0.475
  Li405  Li1+  0.050  0.306  0.219  0.475
  Li787  Li1+  0.050  0.540  0.494  0.475
  Li3774  Li1+  0.548  0.340  0.746  0.476
  Li335  Li1+  0.042  0.254  0.183  0.476
  Li923  Li1+  0.048  0.552  0.801  0.476
  Li1393  Li1+  0.150  0.952  0.203  0.476
  Li6  Li1+  0.154  0.044  0.122  0.477
  Li6187  Li1+  0.729  0.946  0.307  0.477
  Li5156  Li1+  0.694  0.300  0.149  0.477
  Li1558  Li1+  0.046  0.846  0.872  0.477
  Li5076  Li1+  0.646  0.156  0.950  0.477
  Li1237  Li1+  0.050  0.706  0.819  0.477
  Li3173  Li1+  0.298  0.900  0.847  0.477
  Li5902  Li1+  0.798  0.792  0.447  0.478
  Li1413  Li1+  0.048  0.842  0.528  0.478
  Li4827  Li1+  0.648  0.152  0.001  0.478
  Li2587  Li1+  0.248  0.752  0.001  0.478
  Li7747  Li1+  0.804  0.992  0.350  0.478
  Li1169  Li1+  0.198  0.600  0.651  0.479
  Li4748  Li1+  0.417  0.842  0.853  0.479
  Li4475  Li1+  0.548  0.604  0.882  0.480
  Li4786  Li1+  0.548  0.837  0.815  0.480
  Li7137  Li1+  0.896  0.467  0.250  0.480
  Li1809  Li1+  0.398  -0.000  0.651  0.481
  Li4174  Li1+  0.598  0.792  0.047  0.481
  Li3142  Li1+  0.354  0.844  0.922  0.481
  Li3949  Li1+  0.546  0.444  0.314  0.481
  Li6758  Li1+  0.900  0.396  0.113  0.481
  Li5524  Li1+  0.646  0.556  0.350  0.482
  Li6682  Li1+  0.852  0.056  0.832  0.482
  Li1372  Li1+  0.050  0.950  0.356  0.482
  Li3141  Li1+  0.248  0.842  0.928  0.482
  Li3181  Li1+  0.346  0.844  0.914  0.483
  Li3877  Li1+  0.498  0.500  0.047  0.483
  Li4153  Li1+  0.552  0.444  0.869  0.484
  Li7414  Li1+  0.952  0.746  0.140  0.484
  Li5372  Li1+  0.760  0.254  0.782  0.484
  Li3638  Li1+  0.552  0.346  0.340  0.485
  Li2377  Li1+  0.206  0.542  0.515  0.485
  Li2960  Li1+  0.398  0.898  0.386  0.485
  Li369  Li1+  0.150  0.352  0.003  0.485
  Li2592  Li1+  0.254  0.652  0.169  0.486
  Li3446  Li1+  0.552  0.146  0.740  0.486
  Li3718  Li1+  0.554  0.244  0.722  0.486
  Li3090  Li1+  0.248  0.808  0.682  0.486
  Li7734  Li1+  0.952  0.946  0.140  0.486
  Li3089  Li1+  0.398  0.800  0.651  0.487
  Li4269  Li1+  0.546  0.644  0.314  0.487
  Li7823  Li1+  0.842  0.854  0.583  0.487
  Li682  Li1+  0.150  0.454  0.171  0.488
  Li3368  Li1+  0.498  0.110  0.451  0.488
  Li1441  Li1+  0.096  0.867  0.450  0.488
  Li3462  Li1+  0.554  0.044  0.922  0.488
  Li4803  Li1+  0.604  0.192  0.150  0.488
  Li3135  Li1+  0.369  0.950  0.789  0.488
  Li4717  Li1+  0.546  0.844  0.714  0.488
  Li5155  Li1+  0.698  0.200  0.013  0.489
  Li5984  Li1+  0.654  0.652  0.769  0.489
  Li2207  Li1+  0.250  0.310  0.821  0.490
  Li3122  Li1+  0.348  0.837  0.615  0.490
  Li4772  Li1+  0.494  0.900  0.949  0.490
  Li4985  Li1+  0.752  0.044  0.469  0.490
  Li5510  Li1+  0.754  0.444  0.322  0.491
  Li5455  Li1+  0.642  0.454  0.183  0.491
  Li1517  Li1+  0.146  0.844  0.714  0.491
  Li1158  Li1+  0.154  0.644  0.722  0.492
  Li1669  Li1+  0.248  0.042  0.328  0.492
  Li891  Li1+  0.148  0.404  0.682  0.492
  Li7333  Li1+  0.898  0.500  0.847  0.492
  Li4129  Li1+  0.496  0.467  0.850  0.493
  Li538  Li1+  0.052  0.256  0.632  0.493
  Li857  Li1+  0.050  0.431  0.611  0.493
  Li4879  Li1+  0.642  0.054  0.383  0.493
  Li5938  Li1+  0.748  0.637  0.415  0.493
  Li117  Li1+  0.146  0.135  0.347  0.493
  Li7941  Li1+  0.848  0.842  0.928  0.493
  Li5813  Li1+  0.746  0.735  0.147  0.493
  Li625  Li1+  0.150  0.352  0.803  0.493
  Li7457  Li1+  0.896  0.667  0.250  0.494
  Li5391  Li1+  0.642  0.254  0.983  0.494
  Li3795  Li1+  0.450  0.340  0.894  0.494
  Li4630  Li1+  0.446  0.846  0.472  0.495
  Li3697  Li1+  0.550  0.352  0.403  0.495
  Li480  Li1+  0.054  0.252  0.569  0.495
  Li7215  Li1+  0.948  0.542  0.493  0.495
  Li529  Li1+  0.198  0.200  0.651  0.495
  Li1312  Li1+  0.054  0.852  0.169  0.495
  Li3471  Li1+  0.442  0.054  0.983  0.496
  Li5586  Li1+  0.648  0.408  0.482  0.496
  Li7986  Li1+  0.948  0.837  0.815  0.496
  Li92  Li1+  0.050  0.150  0.356  0.496
  Li3887  Li1+  0.548  0.542  0.093  0.496
  Li5967  Li1+  0.642  0.654  0.783  0.497
  Li4325  Li1+  0.498  0.700  0.447  0.497
  Li111  Li1+  0.148  0.142  0.293  0.497
  Li1118  Li1+  0.056  0.642  0.514  0.498
  Li109  Li1+  0.146  0.044  0.314  0.498
  Li5262  Li1+  0.798  0.392  0.447  0.498
  Li3047  Li1+  0.294  0.952  0.581  0.498
  Li7405  Li1+  0.946  0.644  0.114  0.498
  Li1892  Li1+  0.294  0.100  0.949  0.500
  Li5201  Li1+  0.798  0.200  0.251  0.500
  Li7642  Li1+  0.852  0.656  0.832  0.500
  Li2896  Li1+  0.398  0.898  0.186  0.501
  Li3896  Li1+  0.548  0.450  0.026  0.501
  Li5301  Li1+  0.746  0.335  0.547  0.501
  Li7225  Li1+  0.952  0.444  0.469  0.501
  Li6373  Li1+  0.698  0.900  0.847  0.501
  Li86  Li1+  0.046  0.046  0.272  0.501
  Li6065  Li1+  0.750  0.752  0.803  0.501
  Li5490  Li1+  0.748  0.438  0.015  0.501
  Li7366  Li1+  0.954  0.644  0.122  0.502
  Li5585  Li1+  0.798  0.400  0.451  0.502
  Li70  Li1+  0.154  0.044  0.322  0.502
  Li3576  Li1+  0.548  0.250  0.026  0.503
  Li1471  Li1+  0.169  0.950  0.589  0.503
  Li1865  Li1+  0.206  0.142  0.915  0.503
  Li3290  Li1+  0.452  0.056  0.232  0.504
  Li7132  Li1+  0.850  0.550  0.356  0.504
  Li7157  Li1+  0.946  0.535  0.347  0.504
  Li3488  Li1+  0.454  0.052  0.969  0.504
  Li6555  Li1+  0.848  0.152  0.401  0.505
  Li4750  Li1+  0.598  0.992  0.847  0.505
  Li2026  Li1+  0.350  0.254  0.371  0.505
  Li1295  Li1+  0.042  0.854  0.183  0.505
  Li3041  Li1+  0.296  0.867  0.450  0.505
  Li4415  Li1+  0.569  0.750  0.789  0.505
  Li2726  Li1+  0.300  0.796  0.513  0.506
  Li3960  Li1+  0.548  0.450  0.226  0.506
  Li42  Li1+  0.150  0.054  0.171  0.506
  Li5944  Li1+  0.748  0.650  0.426  0.507
  Li2794  Li1+  0.350  0.654  0.771  0.507
  Li3643  Li1+  0.548  0.204  0.282  0.507
  Li7397  Li1+  0.898  0.700  0.047  0.507
  Li2991  Li1+  0.348  0.942  0.293  0.507
  Li6189  Li1+  0.746  0.844  0.314  0.507
  Li1197  Li1+  0.146  0.644  0.714  0.508
  Li1478  Li1+  0.154  0.844  0.722  0.509
  Li5549  Li1+  0.746  0.444  0.314  0.509
  Li1036  Li1+  0.017  0.642  0.253  0.510
  Li4770  Li1+  0.456  0.867  0.954  0.510
  Li5880  Li1+  0.748  0.650  0.226  0.510
  Li1781  Li1+  0.346  0.135  0.547  0.511
  Li5048  Li1+  0.748  0.050  0.626  0.511
  Li4678  Li1+  0.554  0.844  0.722  0.512
  Li7358  Li1+  0.948  0.540  0.946  0.512
  Li2366  Li1+  0.348  0.540  0.346  0.512
  Li3185  Li1+  0.350  0.952  0.803  0.512
  Li3501  Li1+  0.546  0.044  0.914  0.512
  Li4060  Li1+  0.450  0.550  0.756  0.512
  Li3365  Li1+  0.498  0.100  0.447  0.512
  Li5079  Li1+  0.648  0.062  0.889  0.513
  Li4230  Li1+  0.554  0.644  0.322  0.513
  Li1996  Li1+  0.217  0.242  0.253  0.513
  Li817  Li1+  0.150  0.552  0.403  0.513
  Li1647  Li1+  0.348  0.142  0.093  0.514
  Li3751  Li1+  0.494  0.352  0.781  0.514
  Li2781  Li1+  0.248  0.798  0.681  0.514
  Li3757  Li1+  0.546  0.244  0.714  0.514
  Li2533  Li1+  0.298  0.500  0.847  0.514
  Li7827  Li1+  0.850  0.940  0.494  0.514
  Li639  Li1+  0.169  0.350  0.989  0.515
  Li7093  Li1+  0.946  0.535  0.147  0.515
  Li6275  Li1+  0.604  0.992  0.750  0.515
  Li6358  Li1+  0.646  0.846  0.872  0.515
  Li4366  Li1+  0.598  0.792  0.647  0.517
  Li5647  Li1+  0.642  0.454  0.783  0.517
  Li4394  Li1+  0.550  0.654  0.771  0.517
  Li1554  Li1+  0.048  0.808  0.882  0.517
  Li5024  Li1+  0.654  0.052  0.769  0.518
  Li6561  Li1+  0.896  0.067  0.450  0.518
  Li3910  Li1+  0.554  0.444  0.322  0.519
  Li6816  Li1+  0.854  0.252  0.369  0.519
  Li3086  Li1+  0.398  0.992  0.647  0.519
  Li6076  Li1+  0.760  0.654  0.982  0.520
  Li5861  Li1+  0.698  0.700  0.247  0.520
  Li6556  Li1+  0.850  0.150  0.556  0.521
  Li3768  Li1+  0.548  0.250  0.626  0.521
  Li3534  Li1+  0.598  0.392  0.047  0.521
  Li407  Li1+  0.048  0.262  0.289  0.521
  Li2159  Li1+  0.348  0.342  0.693  0.522
  Li5787  Li1+  0.648  0.752  0.001  0.522
  Li3825  Li1+  0.550  0.352  0.803  0.522
  Li938  Li1+  0.150  0.454  0.971  0.522
  Li6191  Li1+  0.748  0.942  0.293  0.523
  Li45  Li1+  0.146  0.044  0.114  0.523
  Li415  Li1+  0.050  0.310  0.221  0.525
  Li6663  Li1+  0.946  0.148  0.847  0.525
  Li7363  Li1+  0.804  0.792  0.150  0.525
  Li1248  Li1+  0.054  0.652  0.969  0.525
  Li7983  Li1+  0.948  0.942  0.893  0.525
  Li3494  Li1+  0.500  0.196  0.913  0.525
  Li3424  Li1+  0.454  0.052  0.769  0.526
  Li2465  Li1+  0.296  0.467  0.650  0.526
  Li6895  Li1+  0.948  0.342  0.493  0.526
  Li3312  Li1+  0.548  0.150  0.356  0.526
  Li2054  Li1+  0.354  0.244  0.522  0.526
  Li3853  Li1+  0.400  0.496  0.088  0.527
  Li5112  Li1+  0.748  0.050  0.826  0.527
  Li90  Li1+  0.052  0.056  0.232  0.527
  Li3740  Li1+  0.450  0.350  0.756  0.527
  Li837  Li1+  0.048  0.442  0.728  0.527
  Li2630  Li1+  0.354  0.644  0.322  0.527
  Li150  Li1+  0.046  0.046  0.472  0.527
  Li1249  Li1+  0.096  0.667  0.850  0.528
  Li7006  Li1+  0.856  0.242  0.914  0.528
  Li1692  Li1+  0.250  0.150  0.356  0.528
  Li6919  Li1+  0.946  0.348  0.647  0.528
  Li7280  Li1+  0.948  0.550  0.756  0.528
  Li1903  Li1+  0.348  0.142  0.893  0.529
  Li6723  Li1+  0.804  0.392  0.150  0.529
  Li5073  Li1+  0.798  -0.000  0.851  0.530
  Li3867  Li1+  0.448  0.552  0.001  0.530
  Li2230  Li1+  0.352  0.346  0.940  0.531
  Li1483  Li1+  0.198  0.825  0.650  0.531
  Li4778  Li1+  0.550  0.854  0.971  0.531
  Li3813  Li1+  0.498  0.300  0.847  0.531
  Li3162  Li1+  0.252  0.856  0.832  0.531
  Li5423  Li1+  0.748  0.342  0.893  0.532
  Li7097  Li1+  0.952  0.444  0.069  0.532
  Li2943  Li1+  0.369  0.950  0.189  0.532
  Li6628  Li1+  0.894  0.100  0.749  0.533
  Li4216  Li1+  0.548  0.650  0.026  0.533
  Li5633  Li1+  0.779  0.400  0.617  0.533
  Li4906  Li1+  0.750  0.054  0.371  0.533
  Li821  Li1+  0.146  0.535  0.547  0.533
  Li2680  Li1+  0.348  0.650  0.226  0.533
  Li4591  Li1+  0.548  0.942  0.293  0.535
  Li6812  Li1+  0.850  0.350  0.356  0.535
  Li5800  Li1+  0.698  0.710  0.051  0.535
  Li4433  Li1+  0.598  0.600  0.851  0.536
  Li4001  Li1+  0.496  0.467  0.450  0.536
  Li6814  Li1+  0.856  0.242  0.314  0.536
  Li2208  Li1+  0.254  0.252  0.969  0.537
  Li5049  Li1+  0.752  0.044  0.669  0.537
  Li5844  Li1+  0.646  0.756  0.350  0.537
  Li1477  Li1+  0.048  0.842  0.728  0.537
  Li2728  Li1+  0.298  0.710  0.451  0.538
  Li7973  Li1+  0.898  0.900  0.847  0.538
  Li6149  Li1+  0.648  0.842  0.328  0.538
  Li6618  Li1+  0.852  0.056  0.632  0.538
  Li259  Li1+  0.004  0.192  0.950  0.538
  Li1544  Li1+  0.050  0.950  0.849  0.538
  Li2955  Li1+  0.398  0.825  0.250  0.538
  Li4712  Li1+  0.498  0.910  0.651  0.539
  Li7259  Li1+  0.848  0.552  0.601  0.540
  Li5637  Li1+  0.648  0.442  0.728  0.540
  Li3604  Li1+  0.446  0.356  0.350  0.540
  Li7578  Li1+  0.852  0.656  0.632  0.540
  Li7968  Li1+  0.854  0.852  0.969  0.541
  Li655  Li1+  0.042  0.454  0.183  0.541
  Li4286  Li1+  0.548  0.740  0.346  0.541
  Li7096  Li1+  0.948  0.450  0.026  0.541
  Li2649  Li1+  0.250  0.631  0.211  0.541
  Li7779  Li1+  0.898  0.800  0.213  0.541
  Li7365  Li1+  0.848  0.642  0.128  0.541
  Li4814  Li1+  0.798  0.192  0.047  0.542
  Li3237  Li1+  0.498  0.100  0.047  0.542
  Li3540  Li1+  0.446  0.356  0.150  0.542
  Li6309  Li1+  0.698  0.900  0.647  0.542
  Li710  Li1+  0.154  0.444  0.322  0.542
  Li5009  Li1+  0.798  -0.000  0.651  0.543
  Li6864  Li1+  0.998  0.298  0.586  0.543
  Li2400  Li1+  0.254  0.452  0.569  0.543
  Li6227  Li1+  0.650  0.940  0.494  0.543
  Li6437  Li1+  0.898  0.100  0.047  0.544
  Li6575  Li1+  0.948  0.142  0.493  0.544
  Li1423  Li1+  0.042  0.854  0.583  0.544
  Li6960  Li1+  0.948  0.350  0.756  0.545
  Li5933  Li1+  0.746  0.644  0.514  0.545
  Li4421  Li1+  0.448  0.642  0.928  0.546
  Li1667  Li1+  0.204  0.192  0.350  0.546
  Li679  Li1+  0.094  0.552  0.181  0.546
  Li3432  Li1+  0.498  0.110  0.651  0.546
  Li3611  Li1+  0.448  0.352  0.201  0.546
  Li5779  Li1+  0.650  0.740  0.094  0.547
  Li3023  Li1+  0.242  0.854  0.583  0.547
  Li2259  Li1+  0.250  0.540  0.094  0.547
  Li4837  Li1+  0.698  0.100  0.047  0.547
  Li2861  Li1+  0.346  0.644  0.914  0.548
  Li1201  Li1+  0.150  0.752  0.603  0.548
  Li5489  Li1+  0.750  0.552  0.003  0.548
  Li5792  Li1+  0.654  0.652  0.169  0.548
  Li4508  Li1+  0.450  0.950  0.156  0.548
  Li6678  Li1+  0.846  0.046  0.872  0.549
  Li6957  Li1+  0.946  0.244  0.714  0.549
  Li234  Li1+  0.150  0.054  0.771  0.549
  Li3804  Li1+  0.450  0.350  0.956  0.549
  Li5187  Li1+  0.604  0.392  0.350  0.549
  Li4627  Li1+  0.450  0.940  0.494  0.550
  Li4857  Li1+  0.752  0.044  0.069  0.550
  Li7609  Li1+  0.952  0.644  0.669  0.551
  Li4536  Li1+  0.548  0.850  0.026  0.551
  Li1514  Li1+  0.150  0.854  0.771  0.551
  Li3085  Li1+  0.200  0.896  0.688  0.551
  Li2646  Li1+  0.246  0.646  0.272  0.552
  Li1620  Li1+  0.246  0.156  0.150  0.552
  Li1569  Li1+  0.096  0.867  0.850  0.553
  Li3565  Li1+  0.546  0.244  0.114  0.553
  Li6752  Li1+  0.854  0.252  0.169  0.553
  Li676  Li1+  0.094  0.500  0.149  0.553
  Li5782  Li1+  0.646  0.646  0.072  0.553
  Li1510  Li1+  0.100  0.996  0.713  0.553
  Li3848  Li1+  0.450  0.550  0.049  0.553
  Li4116  Li1+  0.446  0.556  0.950  0.553
  Li2523  Li1+  0.248  0.552  0.801  0.553
  Li6581  Li1+  0.946  0.135  0.547  0.553
  Li3139  Li1+  0.204  0.992  0.950  0.554
  Li4253  Li1+  0.448  0.798  0.281  0.554
  Li6136  Li1+  0.748  0.850  0.026  0.554
  Li4089  Li1+  0.552  0.444  0.669  0.555
  Li6512  Li1+  0.948  0.150  0.356  0.555
  Li6192  Li1+  0.748  0.950  0.356  0.555
  Li4085  Li1+  0.546  0.535  0.747  0.555
  Li348  Li1+  0.050  0.350  0.156  0.556
  Li5334  Li1+  0.646  0.246  0.672  0.556
  Li4062  Li1+  0.456  0.442  0.714  0.557
  Li7695  Li1+  0.842  0.854  0.183  0.557
  Li6629  Li1+  0.898  0.100  0.647  0.557
  Li4493  Li1+  0.400  0.896  0.088  0.557
  Li6467  Li1+  0.804  0.192  0.350  0.557
  Li6253  Li1+  0.746  0.844  0.514  0.557
  Li4956  Li1+  0.650  0.150  0.556  0.558
  Li7744  Li1+  0.981  0.840  0.051  0.558
  Li2319  Li1+  0.242  0.454  0.383  0.558
  Li3245  Li1+  0.546  0.044  0.114  0.558
  Li7602  Li1+  0.948  0.637  0.615  0.559
  Li2563  Li1+  0.204  0.792  0.150  0.559
  Li4594  Li1+  0.548  0.837  0.215  0.560
  Li288  Li1+  0.054  0.052  0.969  0.560
  Li1568  Li1+  0.054  0.852  0.969  0.561
  Li2526  Li1+  0.256  0.442  0.914  0.561
  Li3358  Li1+  0.456  0.042  0.514  0.561
  Li4960  Li1+  0.654  0.052  0.569  0.562
  Li699  Li1+  0.148  0.404  0.082  0.562
  Li5526  Li1+  0.646  0.446  0.272  0.562
  Li389  Li1+  0.048  0.242  0.328  0.562
  Li3472  Li1+  0.598  0.098  0.986  0.562
  Li7533  Li1+  0.946  0.644  0.514  0.562
  Li5681  Li1+  0.750  0.552  0.603  0.563
  Li143  Li1+  0.042  0.054  0.583  0.563
  Li4498  Li1+  0.448  0.808  0.082  0.563
  Li313  Li1+  0.152  0.044  0.869  0.563
  Li3479  Li1+  0.448  0.062  0.889  0.563
  Li4958  Li1+  0.656  0.042  0.514  0.564
  Li1837  Li1+  0.346  0.044  0.714  0.564
  Li5176  Li1+  0.748  0.250  0.026  0.564
  Li5274  Li1+  0.652  0.256  0.432  0.564
  Li3313  Li1+  0.550  0.152  0.203  0.567
  Li5457  Li1+  0.798  0.400  0.051  0.567
  Li3980  Li1+  0.417  0.442  0.453  0.567
  Li714  Li1+  0.029  0.550  0.389  0.567
  Li1691  Li1+  0.248  0.152  0.201  0.567
  Li6342  Li1+  0.754  0.844  0.922  0.567
  Li5229  Li1+  0.746  0.244  0.314  0.568
  Li6971  Li1+  0.948  0.204  0.682  0.568
  Li7023  Li1+  0.948  0.342  0.893  0.568
  Li1391  Li1+  0.148  0.942  0.293  0.568
  Li5146  Li1+  0.652  0.256  0.032  0.569
  Li4463  Li1+  0.548  0.742  0.893  0.569
  Li1519  Li1+  0.148  0.942  0.693  0.569
  Li5560  Li1+  0.748  0.450  0.226  0.569
  Li5217  Li1+  0.696  0.267  0.250  0.569
  Li3226  Li1+  0.452  0.056  0.032  0.569
  Li5823  Li1+  0.769  0.750  0.189  0.570
  Li4303  Li1+  0.442  0.654  0.583  0.570
  Li3449  Li1+  0.552  0.044  0.669  0.571
  Li1756  Li1+  0.250  0.150  0.556  0.571
  Li5519  Li1+  0.642  0.454  0.383  0.571
  Li2620  Li1+  0.360  0.654  0.182  0.571
  Li4955  Li1+  0.648  0.152  0.401  0.571
  Li5069  Li1+  0.600  0.096  0.888  0.572
  Li6874  Li1+  0.852  0.256  0.432  0.572
  Li2285  Li1+  0.346  0.444  0.114  0.572
  Li6806  Li1+  0.846  0.246  0.272  0.572
  Li4315  Li1+  0.448  0.752  0.401  0.572
  Li7905  Li1+  0.896  0.867  0.650  0.573
  Li4405  Li1+  0.546  0.735  0.747  0.573
  Li5765  Li1+  0.648  0.642  0.128  0.573
  Li668  Li1+  0.050  0.550  0.156  0.573
  Li3292  Li1+  0.450  0.150  0.356  0.573
  Li304  Li1+  0.148  0.150  0.956  0.574
  Li2696  Li1+  0.250  0.750  0.449  0.574
  Li5071  Li1+  0.642  0.054  0.983  0.576
  Li1670  Li1+  0.354  0.044  0.322  0.576
  Li1019  Li1+  0.148  0.604  0.082  0.576
  Li7388  Li1+  0.850  0.750  0.156  0.576
  Li6769  Li1+  0.950  0.352  0.003  0.576
  Li6172  Li1+  0.650  0.950  0.356  0.576
  Li3818  Li1+  0.550  0.254  0.971  0.576
  Li790  Li1+  0.046  0.446  0.472  0.576
  Li7255  Li1+  0.848  0.462  0.689  0.576
  Li7054  Li1+  0.998  0.592  0.047  0.577
  Li1361  Li1+  0.198  0.800  0.251  0.577
  Li6044  Li1+  0.650  0.750  0.956  0.577
  Li1713  Li1+  0.350  0.152  0.203  0.577
  Li4384  Li1+  0.454  0.652  0.769  0.577
  Li3015  Li1+  0.346  0.948  0.447  0.577
  Li1673  Li1+  0.206  0.142  0.315  0.578
  Li170  Li1+  0.150  0.054  0.571  0.579
  Li1238  Li1+  0.046  0.646  0.872  0.579
  Li7123  Li1+  0.850  0.540  0.294  0.579
  Li30  Li1+  0.056  0.042  0.114  0.580
  Li4401  Li1+  0.550  0.752  0.603  0.581
  Li5595  Li1+  0.648  0.552  0.401  0.581
  Li6023  Li1+  0.746  0.748  0.847  0.581
  Li736  Li1+  0.054  0.452  0.369  0.581
  Li5157  Li1+  0.698  0.300  0.047  0.581
  Li3574  Li1+  0.552  0.346  0.140  0.583
  Li7288  Li1+  0.948  0.450  0.626  0.584
  Li7359  Li1+  0.969  0.550  0.989  0.584
  Li1636  Li1+  0.294  0.100  0.149  0.585
  Li5660  Li1+  0.650  0.550  0.756  0.585
  Li2744  Li1+  0.348  0.650  0.426  0.585
  Li6976  Li1+  0.981  0.240  0.651  0.585
  Li3058  Li1+  0.348  0.837  0.415  0.585
  Li2916  Li1+  0.294  0.900  0.149  0.585
  Li326  Li1+  0.154  0.244  0.122  0.585
  Li1184  Li1+  0.054  0.652  0.769  0.586
  Li7244  Li1+  0.817  0.442  0.653  0.587
  Li7392  Li1+  0.854  0.652  0.169  0.587
  Li7878  Li1+  0.954  0.844  0.722  0.587
  Li3790  Li1+  0.598  0.392  0.847  0.588
  Li872  Li1+  0.098  0.510  0.651  0.588
  Li6320  Li1+  0.748  0.950  0.756  0.588
  Li5413  Li1+  0.698  0.300  0.847  0.588
  Li1308  Li1+  0.050  0.950  0.156  0.589
  Li7653  Li1+  0.898  0.700  0.847  0.589
  Li703  Li1+  0.169  0.550  0.189  0.589
  Li3717  Li1+  0.448  0.242  0.728  0.589
  Li4819  Li1+  0.650  0.140  0.094  0.590
  Li1389  Li1+  0.146  0.844  0.314  0.591
  Li6479  Li1+  0.842  0.054  0.383  0.591
  Li1073  Li1+  0.150  0.752  0.203  0.592
  Li5421  Li1+  0.746  0.244  0.914  0.592
  Li2337  Li1+  0.296  0.467  0.250  0.592
  Li1731  Li1+  0.204  0.192  0.550  0.592
  Li2085  Li1+  0.298  0.300  0.447  0.592
  Li3654  Li1+  0.554  0.244  0.522  0.593
  Li5809  Li1+  0.750  0.752  0.003  0.593
  Li3784  Li1+  0.450  0.350  0.849  0.593
  Li5768  Li1+  0.650  0.750  0.049  0.593
  Li2735  Li1+  0.348  0.742  0.493  0.594
  Li7338  Li1+  0.950  0.454  0.971  0.594
  Li7174  Li1+  0.954  0.444  0.522  0.594
  Li5625  Li1+  0.752  0.444  0.469  0.594
  Li1550  Li1+  0.198  0.992  0.847  0.594
  Li4589  Li1+  0.546  0.844  0.314  0.594
  Li2481  Li1+  0.350  0.552  0.603  0.594
  Li5126  Li1+  0.754  0.244  0.122  0.595
  Li5329  Li1+  0.798  0.200  0.651  0.595
  Li3932  Li1+  0.450  0.550  0.356  0.595
  Li7569  Li1+  0.998  0.600  0.651  0.595
  Li2567  Li1+  0.346  0.748  0.047  0.596
  Li4975  Li1+  0.748  0.142  0.493  0.596
  Li2780  Li1+  0.250  0.750  0.756  0.597
  Li3215  Li1+  0.442  0.054  0.183  0.597
  Li4731  Li1+  0.548  0.804  0.682  0.597
  Li6417  Li1+  0.998  -0.000  0.051  0.598
  Li7830  Li1+  0.846  0.846  0.472  0.598
  Li5206  Li1+  0.646  0.246  0.272  0.598
  Li3151  Li1+  0.242  0.854  0.983  0.599
  Li131  Li1+  0.004  0.192  0.550  0.599
  Li3599  Li1+  0.442  0.254  0.383  0.599
  Li1329  Li1+  0.150  0.952  0.003  0.599
  Li1180  Li1+  0.050  0.750  0.756  0.600
  Li7953  Li1+  0.998  0.800  0.851  0.600
  Li3321  Li1+  0.552  0.044  0.269  0.600
  Li4755  Li1+  0.450  0.940  0.894  0.600
  Li6748  Li1+  0.850  0.350  0.156  0.600
  Li530  Li1+  0.048  0.208  0.682  0.601
  Li3931  Li1+  0.448  0.552  0.201  0.601
  Li4886  Li1+  0.646  0.046  0.272  0.601
  Li6145  Li1+  0.779  0.800  0.217  0.601
  Li2077  Li1+  0.248  0.398  0.481  0.601
  Li6302  Li1+  0.656  0.842  0.714  0.602
  Li261  Li1+  0.048  0.042  0.928  0.602
  Li101  Li1+  0.098  0.100  0.247  0.604
  Li1581  Li1+  0.146  0.844  0.914  0.604
  Li6688  Li1+  0.854  0.052  0.969  0.604
  Li5169  Li1+  0.750  0.352  0.003  0.604
  Li1206  Li1+  0.152  0.746  0.740  0.604
  Li4941  Li1+  0.600  0.096  0.488  0.604
  Li2499  Li1+  0.204  0.592  0.950  0.604
  Li7  Li1+  0.146  0.148  0.047  0.605
  Li2782  Li1+  0.256  0.642  0.714  0.605
  Li1871  Li1+  0.242  0.054  0.983  0.605
  Li1208  Li1+  0.148  0.650  0.626  0.606
  Li3220  Li1+  0.446  0.156  0.150  0.606
  Li4470  Li1+  0.552  0.746  0.940  0.606
  Li4418  Li1+  0.423  0.600  0.814  0.606
  Li6261  Li1+  0.746  0.935  0.547  0.606
  Li5390  Li1+  0.798  0.392  0.847  0.606
  Li4058  Li1+  0.452  0.456  0.632  0.607
  Li7343  Li1+  0.948  0.542  0.893  0.607
  Li1039  Li1+  0.042  0.654  0.383  0.607
  Li39  Li1+  0.094  0.152  0.181  0.607
  Li11  Li1+  0.198  0.025  0.050  0.607
  Li3587  Li1+  0.404  0.392  0.350  0.608
  Li1712  Li1+  0.348  0.150  0.356  0.608
  Li7122  Li1+  0.848  0.408  0.282  0.608
  Li7109  Li1+  0.848  0.442  0.328  0.609
  Li4293  Li1+  0.448  0.642  0.528  0.609
  Li7316  Li1+  0.846  0.556  0.950  0.609
  Li3411  Li1+  0.450  0.140  0.694  0.610
  Li4227  Li1+  0.404  0.792  0.350  0.610
  Li7136  Li1+  0.854  0.452  0.369  0.610
  Li2181  Li1+  0.248  0.242  0.928  0.610
  Li7341  Li1+  0.946  0.444  0.914  0.610
  Li7493  Li1+  0.848  0.642  0.528  0.611
  Li1014  Li1+  0.152  0.746  0.140  0.611
  Li1120  Li1+  0.054  0.652  0.569  0.611
  Li1298  Li1+  0.048  0.808  0.082  0.611
  Li4752  Li1+  0.598  0.898  0.986  0.611
  Li1768  Li1+  0.298  0.110  0.451  0.611
  Li7595  Li1+  0.929  0.746  0.707  0.611
  Li4635  Li1+  0.448  0.952  0.401  0.611
  Li595  Li1+  0.050  0.340  0.894  0.612
  Li6534  Li1+  0.954  0.044  0.522  0.612
  Li1227  Li1+  0.198  0.625  0.850  0.612
  Li1194  Li1+  0.150  0.654  0.771  0.612
  Li6768  Li1+  0.948  0.350  0.156  0.613
  Li3525  Li1+  0.448  0.242  0.128  0.613
  Li2074  Li1+  0.252  0.256  0.432  0.613
  Li6133  Li1+  0.746  0.935  0.147  0.613
  Li4525  Li1+  0.546  0.844  0.114  0.613
  Li7247  Li1+  0.842  0.454  0.783  0.615
  Li3150  Li1+  0.398  0.992  0.847  0.615
  Li4358  Li1+  0.554  0.644  0.722  0.616
  Li7110  Li1+  0.954  0.444  0.322  0.616
  Li5231  Li1+  0.748  0.342  0.293  0.616
  Li3547  Li1+  0.448  0.352  0.001  0.616
  Li5830  Li1+  0.754  0.644  0.322  0.616
  Li5677  Li1+  0.746  0.444  0.714  0.617
  Li1696  Li1+  0.254  0.052  0.369  0.617
  Li5517  Li1+  0.600  0.496  0.288  0.617
  Li5598  Li1+  0.656  0.442  0.514  0.617
  Li6445  Li1+  0.946  0.044  0.114  0.617
  Li2962  Li1+  0.248  0.808  0.282  0.617
  Li3022  Li1+  0.398  0.992  0.447  0.617
  Li1157  Li1+  0.048  0.642  0.728  0.618
  Li1054  Li1+  0.056  0.642  0.314  0.618
  Li2405  Li1+  0.298  0.500  0.447  0.619
  Li4942  Li1+  0.798  0.192  0.447  0.619
  Li7853  Li1+  0.946  0.844  0.514  0.619
  Li4830  Li1+  0.656  0.042  0.114  0.619
  Li5994  Li1+  0.750  0.654  0.771  0.619
  Li2479  Li1+  0.348  0.542  0.693  0.620
  Li4167  Li1+  0.546  0.748  0.047  0.620
  Li4847  Li1+  0.748  0.142  0.093  0.620
  Li647  Li1+  0.146  0.548  0.047  0.620
  Li7072  Li1+  0.854  0.452  0.169  0.620
  Li7473  Li1+  0.950  0.752  0.203  0.620
  Li7456  Li1+  0.854  0.652  0.369  0.620
  Li730  Li1+  0.052  0.456  0.232  0.621
  Li5651  Li1+  0.650  0.540  0.694  0.621
  Li1707  Li1+  0.329  0.146  0.307  0.621
  Li91  Li1+  0.048  0.152  0.201  0.621
  Li3484  Li1+  0.450  0.150  0.956  0.622
  Li7881  Li1+  0.806  0.942  0.715  0.623
  Li6297  Li1+  0.650  0.831  0.611  0.623
  Li2118  Li1+  0.354  0.244  0.722  0.623
  Li3838  Li1+  0.548  0.340  0.946  0.624
  Li1893  Li1+  0.298  0.100  0.847  0.624
  Li7836  Li1+  0.850  0.950  0.556  0.625
  Li7497  Li1+  0.806  0.742  0.515  0.625
  Li2997  Li1+  0.346  0.935  0.347  0.625
  Li6944  Li1+  0.854  0.252  0.769  0.625
  Li1884  Li1+  0.250  0.150  0.956  0.626
  Li2524  Li1+  0.250  0.550  0.956  0.626
  Li7688  Li1+  0.850  0.950  0.049  0.626
  Li2232  Li1+  0.348  0.250  0.826  0.626
  Li3676  Li1+  0.450  0.350  0.556  0.626
  Li1447  Li1+  0.094  0.952  0.581  0.627
  Li5716  Li1+  0.646  0.556  0.950  0.627
  Li3781  Li1+  0.448  0.242  0.928  0.628
  Li5958  Li1+  0.754  0.644  0.722  0.628
  Li4114  Li1+  0.448  0.408  0.882  0.629
  Li4870  Li1+  0.754  0.044  0.322  0.629
  Li2221  Li1+  0.346  0.244  0.914  0.630
  Li6622  Li1+  0.856  0.042  0.714  0.630
  Li3360  Li1+  0.454  0.052  0.569  0.631
  Li6991  Li1+  0.842  0.254  0.983  0.631
  Li881  Li1+  0.150  0.552  0.603  0.631
  Li4166  Li1+  0.554  0.644  0.122  0.631
  Li2908  Li1+  0.250  0.950  0.156  0.631
  Li3919  Li1+  0.442  0.454  0.383  0.632
  Li397  Li1+  -0.000  0.296  0.288  0.632
  Li2462  Li1+  0.256  0.442  0.714  0.633
  Li3761  Li1+  0.550  0.352  0.603  0.633
  Li4165  Li1+  0.448  0.642  0.128  0.633
  Li7070  Li1+  0.856  0.442  0.114  0.633
  Li7451  Li1+  0.848  0.752  0.201  0.634
  Li3882  Li1+  0.550  0.454  0.171  0.634
  Li1285  Li1+  0.048  0.842  0.128  0.634
  Li3535  Li1+  0.442  0.254  0.183  0.635
  Li5503  Li1+  0.769  0.550  0.189  0.635
  Li7025  Li1+  0.950  0.352  0.803  0.635
  Li7813  Li1+  0.848  0.842  0.528  0.635
  Li6283  Li1+  0.798  0.825  0.650  0.636
  Li2258  Li1+  0.248  0.408  0.082  0.636
  Li453  Li1+  0.048  0.242  0.528  0.636
  Li657  Li1+  0.198  0.400  0.051  0.637
  Li1415  Li1+  0.146  0.948  0.447  0.637
  Li4781  Li1+  0.546  0.844  0.914  0.637
  Li4256  Li1+  0.454  0.652  0.369  0.638
  Li7555  Li1+  0.804  0.792  0.750  0.638
  Li32  Li1+  0.054  0.052  0.169  0.639
  Li218  Li1+  0.052  0.056  0.632  0.639
  Li1414  Li1+  0.154  0.844  0.522  0.639
  Li6085  Li1+  0.648  0.842  0.128  0.639
  Li2464  Li1+  0.254  0.452  0.769  0.639
  Li6422  Li1+  0.846  0.046  0.072  0.640
  Li4308  Li1+  0.446  0.756  0.550  0.640
  Li5702  Li1+  0.754  0.444  0.922  0.640
  Li72  Li1+  0.050  0.150  0.249  0.641
  Li4345  Li1+  0.552  0.644  0.469  0.641
  Li2331  Li1+  0.248  0.552  0.201  0.641
  Li7730  Li1+  0.948  0.838  0.015  0.641
  Li5234  Li1+  0.748  0.237  0.215  0.641
  Li6319  Li1+  0.748  0.942  0.693  0.641
  Li451  Li1+  0.004  0.392  0.550  0.642
  Li7729  Li1+  0.950  0.952  0.003  0.642
  Li27  Li1+  0.048  0.152  0.001  0.642
  Li3373  Li1+  0.546  0.044  0.514  0.643
  Li2703  Li1+  0.242  0.654  0.583  0.643
  Li5903  Li1+  0.642  0.654  0.583  0.643
  Li4045  Li1+  0.400  0.496  0.688  0.644
  Li3729  Li1+  0.598  0.200  0.651  0.644
  Li4448  Li1+  0.454  0.652  0.969  0.644
  Li3655  Li1+  0.546  0.348  0.447  0.645
  Li4970  Li1+  0.750  0.054  0.571  0.645
  Li7855  Li1+  0.948  0.942  0.493  0.645
  Li4195  Li1+  0.498  0.600  0.013  0.645
  Li5392  Li1+  0.798  0.298  0.986  0.645
  Li96  Li1+  0.054  0.052  0.369  0.645
  Li153  Li1+  0.050  0.031  0.411  0.645
  Li6331  Li1+  0.748  0.804  0.682  0.646
  Li971  Li1+  0.198  0.625  0.050  0.646
  Li4700  Li1+  0.450  0.950  0.756  0.646
  Li6462  Li1+  0.948  0.140  0.146  0.647
  Li4559  Li1+  0.442  0.854  0.383  0.647
  Li5085  Li1+  0.648  0.198  0.881  0.647
  Li312  Li1+  0.148  0.050  0.826  0.647
  Li7151  Li1+  0.948  0.542  0.293  0.647
  Li4203  Li1+  0.529  0.746  0.107  0.648
  Li3186  Li1+  0.348  0.837  0.815  0.648
  Li1051  Li1+  0.048  0.752  0.201  0.648
  Li3821  Li1+  0.546  0.244  0.914  0.648
  Li1883  Li1+  0.248  0.152  0.801  0.648
  Li474  Li1+  0.052  0.256  0.432  0.649
  Li2538  Li1+  0.350  0.454  0.971  0.649
  Li5062  Li1+  0.754  0.044  0.922  0.649
  Li5468  Li1+  0.650  0.550  0.156  0.650
  Li3121  Li1+  0.350  0.952  0.603  0.651
  Li5284  Li1+  0.694  0.300  0.549  0.651
  Li3754  Li1+  0.550  0.254  0.771  0.651
  Li3597  Li1+  0.400  0.296  0.288  0.652
  Li867  Li1+  0.098  0.400  0.613  0.652
  Li7929  Li1+  0.952  0.844  0.669  0.652
  Li6378  Li1+  0.750  0.854  0.971  0.652
  Li581  Li1+  0.048  0.242  0.928  0.652
  Li7675  Li1+  0.948  0.604  0.882  0.652
  Li5829  Li1+  0.648  0.642  0.328  0.653
  Li3207  Li1+  0.546  0.148  0.047  0.653
  Li1913  Li1+  0.352  0.044  0.869  0.653
  Li2289  Li1+  0.350  0.552  0.003  0.654
  Li5509  Li1+  0.648  0.442  0.328  0.655
  Li1069  Li1+  0.146  0.644  0.314  0.655
  Li4749  Li1+  0.400  0.896  0.888  0.655
  Li3845  Li1+  0.448  0.442  0.128  0.655
  Li6486  Li1+  0.846  0.046  0.272  0.655
  Li7698  Li1+  0.848  0.808  0.082  0.655
  Li4623  Li1+  0.442  0.854  0.583  0.655
  Li3183  Li1+  0.348  0.942  0.893  0.656
  Li7558  Li1+  0.954  0.644  0.722  0.656
  Li6641  Li1+  0.950  0.152  0.603  0.656
  Li2016  Li1+  0.254  0.252  0.369  0.657
  Li2002  Li1+  0.248  0.208  0.282  0.657
  Li6181  Li1+  0.698  0.900  0.247  0.658
  Li4017  Li1+  0.550  0.552  0.403  0.658
  Li3311  Li1+  0.548  0.142  0.293  0.659
  Li7077  Li1+  0.898  0.500  0.047  0.659
  Li4558  Li1+  0.598  0.992  0.247  0.660
  Li134  Li1+  0.154  0.044  0.522  0.660
  Li7762  Li1+  0.848  0.808  0.282  0.660
  Li2195  Li1+  0.250  0.340  0.894  0.660
  Li2154  Li1+  0.350  0.254  0.771  0.661
  Li1541  Li1+  0.048  0.842  0.928  0.661
  Li7082  Li1+  0.950  0.454  0.171  0.662
  Li4913  Li1+  0.750  0.152  0.203  0.662
  Li1874  Li1+  0.248  0.008  0.882  0.662
  Li2528  Li1+  0.254  0.452  0.969  0.663
  Li6840  Li1+  0.948  0.250  0.226  0.663
  Li549  Li1+  0.098  0.300  0.647  0.663
  Li1617  Li1+  0.398  -0.000  0.051  0.663
  Li5907  Li1+  0.650  0.740  0.494  0.663
  Li1947  Li1+  0.248  0.352  0.001  0.663
  Li7877  Li1+  0.848  0.842  0.728  0.665
  Li1970  Li1+  0.348  0.238  0.015  0.665
  Li4764  Li1+  0.450  0.950  0.956  0.665
  Li376  Li1+  0.148  0.250  0.026  0.665
  Li197  Li1+  0.048  0.042  0.728  0.665
  Li1360  Li1+  0.198  0.898  0.386  0.665
  Li6166  Li1+  0.646  0.846  0.272  0.666
  Li465  Li1+  0.198  0.200  0.451  0.666
  Li7631  Li1+  0.842  0.654  0.983  0.666
  Li6998  Li1+  0.846  0.246  0.872  0.667
  Li5096  Li1+  0.698  0.110  0.851  0.667
  Li2566  Li1+  0.354  0.644  0.122  0.667
  Li6317  Li1+  0.746  0.844  0.714  0.667
  Li2353  Li1+  0.350  0.552  0.203  0.668
  Li5477  Li1+  0.698  0.500  0.047  0.668
  Li2310  Li1+  0.354  0.444  0.322  0.668
  Li3603  Li1+  0.450  0.340  0.294  0.668
  Li4209  Li1+  0.550  0.752  0.003  0.669
  Li7594  Li1+  0.950  0.654  0.771  0.669
  Li2910  Li1+  0.256  0.842  0.114  0.669
  Li3623  Li1+  0.494  0.352  0.381  0.669
  Li3035  Li1+  0.248  0.952  0.401  0.669
  Li7269  Li1+  0.898  0.500  0.647  0.670
  Li882  Li1+  0.148  0.437  0.615  0.672
  Li7140  Li1+  0.894  0.500  0.349  0.672
  Li4335  Li1+  0.548  0.742  0.493  0.672
  Li3065  Li1+  0.352  0.844  0.469  0.673
  Li1773  Li1+  0.346  0.044  0.514  0.673
  Li1598  Li1+  0.148  0.940  0.946  0.673
  Li28  Li1+  0.050  0.150  0.156  0.674
  Li2142  Li1+  0.256  0.242  0.714  0.675
  Li4759  Li1+  0.448  0.862  0.889  0.675
  Li3256  Li1+  0.548  0.050  0.026  0.676
  Li5447  Li1+  0.746  0.548  0.047  0.676
  Li2449  Li1+  0.398  0.400  0.651  0.677
  Li3657  Li1+  0.406  0.342  0.515  0.677
  Li3953  Li1+  0.550  0.552  0.203  0.678
  Li5381  Li1+  0.648  0.242  0.928  0.678
  Li7715  Li1+  0.898  0.800  0.013  0.678
  Li5670  Li1+  0.700  0.596  0.713  0.678
  Li6546  Li1+  0.848  0.008  0.482  0.679
  Li1475  Li1+  0.004  0.992  0.750  0.679
  Li7761  Li1+  0.998  0.800  0.251  0.679
  Li1488  Li1+  0.198  0.898  0.786  0.679
  Li2755  Li1+  0.204  0.792  0.750  0.679
  Li2801  Li1+  0.350  0.752  0.603  0.680
  Li6831  Li1+  0.948  0.342  0.293  0.680
  Li2651  Li1+  0.248  0.752  0.201  0.680
  Li4892  Li1+  0.650  0.150  0.356  0.681
  Li6056  Li1+  0.698  0.710  0.851  0.681
  Li4527  Li1+  0.548  0.942  0.093  0.682
  Li6234  Li1+  0.652  0.856  0.432  0.682
  Li1583  Li1+  0.148  0.942  0.893  0.682
  Li4049  Li1+  0.598  0.400  0.651  0.683
  Li1991  Li1+  0.346  0.348  0.247  0.683
  Li7503  Li1+  0.842  0.654  0.583  0.684
  Li6240  Li1+  0.654  0.852  0.569  0.684
  Li6609  Li1+  0.998  -0.000  0.651  0.684
  Li2188  Li1+  0.217  0.242  0.853  0.684
  Li3422  Li1+  0.456  0.042  0.714  0.684
  Li4593  Li1+  0.550  0.952  0.203  0.684
  Li3475  Li1+  0.450  0.140  0.894  0.684
  Li3164  Li1+  0.250  0.950  0.956  0.684
  Li7857  Li1+  0.950  0.952  0.403  0.684
  Li4200  Li1+  0.498  0.710  0.051  0.684
  Li3483  Li1+  0.448  0.152  0.801  0.684
  Li6171  Li1+  0.648  0.952  0.201  0.685
  Li7772  Li1+  0.850  0.950  0.356  0.685
  Li4655  Li1+  0.548  0.942  0.493  0.685
  Li337  Li1+  0.198  0.200  0.051  0.685
  Li5293  Li1+  0.746  0.244  0.514  0.685
  Li2972  Li1+  0.250  0.950  0.356  0.685
  Li4344  Li1+  0.548  0.650  0.426  0.685
  Li2267  Li1+  0.248  0.552  0.001  0.685
  Li5530  Li1+  0.652  0.456  0.232  0.686
  Li4657  Li1+  0.550  0.952  0.403  0.687
  Li3195  Li1+  0.348  0.804  0.882  0.687
  Li1755  Li1+  0.248  0.152  0.401  0.687
  Li5746  Li1+  0.748  0.437  0.815  0.687
  Li2247  Li1+  0.346  0.548  0.047  0.687
  Li7443  Li1+  0.850  0.740  0.294  0.688
  Li4330  Li1+  0.550  0.654  0.571  0.688
  Li5596  Li1+  0.650  0.550  0.556  0.688
  Li26  Li1+  0.052  0.056  0.032  0.689
  Li7201  Li1+  0.896  0.467  0.450  0.689
  Li5278  Li1+  0.656  0.242  0.514  0.689
  Li2009  Li1+  0.250  0.231  0.211  0.689
  Li7580  Li1+  0.850  0.750  0.756  0.690
  Li1126  Li1+  0.100  0.796  0.513  0.690
  Li3921  Li1+  0.598  0.400  0.251  0.690
  Li7186  Li1+  0.848  0.408  0.482  0.690
  Li519  Li1+  0.146  0.348  0.647  0.690
  Li4783  Li1+  0.548  0.942  0.893  0.691
  Li3050  Li1+  0.350  0.854  0.571  0.691
  Li2332  Li1+  0.250  0.550  0.356  0.691
  Li5753  Li1+  0.752  0.444  0.869  0.692
  Li6898  Li1+  0.948  0.237  0.415  0.692
  Li284  Li1+  0.050  0.150  0.956  0.692
  Li1168  Li1+  0.198  0.698  0.786  0.694
  Li6841  Li1+  0.952  0.244  0.269  0.694
  Li5743  Li1+  0.748  0.542  0.893  0.694
  Li2351  Li1+  0.348  0.542  0.293  0.695
  Li7062  Li1+  0.846  0.446  0.072  0.695
  Li3872  Li1+  0.454  0.452  0.169  0.696
  Li1286  Li1+  0.154  0.844  0.122  0.697
  Li1455  Li1+  0.148  0.942  0.493  0.698
  Li4936  Li1+  0.650  0.150  0.449  0.698
  Li6366  Li1+  0.656  0.842  0.914  0.698
  Li1258  Li1+  0.150  0.654  0.971  0.698
  Li6851  Li1+  0.804  0.392  0.550  0.699
  Li2989  Li1+  0.346  0.844  0.314  0.699
  Li1760  Li1+  0.254  0.052  0.569  0.700
  Li1905  Li1+  0.350  0.152  0.803  0.701
  Li2865  Li1+  0.350  0.752  0.803  0.701
  Li6494  Li1+  0.856  0.042  0.314  0.702
  Li185  Li1+  0.152  0.044  0.469  0.703
  Li4051  Li1+  0.450  0.540  0.694  0.703
  Li5142  Li1+  0.646  0.246  0.072  0.703
  Li4849  Li1+  0.750  0.152  0.003  0.704
  Li2555  Li1+  0.348  0.404  0.882  0.705
  Li5403  Li1+  0.648  0.352  0.801  0.705
  Li3958  Li1+  0.552  0.546  0.340  0.705
  Li210  Li1+  0.048  0.008  0.682  0.705
  Li1130  Li1+  0.150  0.654  0.571  0.705
  Li7900  Li1+  0.850  0.950  0.756  0.706
  Li1091  Li1+  0.004  0.792  0.550  0.706
  Li7770  Li1+  0.852  0.856  0.232  0.707
  Li6746  Li1+  0.852  0.256  0.032  0.707
  Li4390  Li1+  0.500  0.796  0.713  0.707
  Li5729  Li1+  0.696  0.467  0.850  0.707
  Li5546  Li1+  0.750  0.454  0.371  0.708
  Li5542  Li1+  0.700  0.596  0.313  0.708
  Li2724  Li1+  0.294  0.700  0.549  0.708
  Li2887  Li1+  0.346  0.948  0.047  0.708
  Li825  Li1+  0.152  0.444  0.469  0.708
  Li931  Li1+  0.098  0.400  0.813  0.708
  Li7245  Li1+  0.800  0.496  0.688  0.709
  Li3345  Li1+  0.598  -0.000  0.451  0.709
  Li6705  Li1+  0.950  0.152  0.803  0.710
  Li818  Li1+  0.148  0.437  0.415  0.710
  Li589  Li1+  -0.000  0.296  0.888  0.710
  Li6481  Li1+  0.998  -0.000  0.251  0.710
  Li456  Li1+  0.050  0.350  0.449  0.710
  Li5340  Li1+  0.650  0.350  0.756  0.710
  Li2245  Li1+  0.248  0.442  0.128  0.710
  Li3705  Li1+  0.552  0.244  0.469  0.711
  Li2287  Li1+  0.348  0.542  0.093  0.711
  Li1027  Li1+  0.004  0.792  0.350  0.712
  Li16  Li1+  0.198  0.098  0.186  0.712
  Li4687  Li1+  0.442  0.854  0.783  0.712
  Li5445  Li1+  0.648  0.442  0.128  0.712
  Li1912  Li1+  0.348  0.050  0.826  0.712
  Li4664  Li1+  0.548  0.850  0.426  0.713
  Li6640  Li1+  0.948  0.150  0.756  0.713
  Li6661  Li1+  0.848  0.042  0.928  0.714
  Li7218  Li1+  0.948  0.437  0.415  0.714
  Li2779  Li1+  0.248  0.752  0.601  0.714
  Li3376  Li1+  0.548  0.150  0.556  0.715
  Li455  Li1+  0.146  0.348  0.447  0.715
  Li6787  Li1+  0.804  0.392  0.350  0.715
  Li6861  Li1+  0.800  0.296  0.488  0.715
  Li325  Li1+  0.048  0.242  0.128  0.717
  Li2148  Li1+  0.294  0.300  0.749  0.717
  Li1606  Li1+  0.354  0.044  0.122  0.718
  Li3306  Li1+  0.550  0.054  0.371  0.718
  Li1925  Li1+  0.248  0.242  0.128  0.718
  Li5551  Li1+  0.748  0.542  0.293  0.719
  Li7962  Li1+  0.852  0.856  0.832  0.719
  Li6097  Li1+  0.798  0.800  0.051  0.720
  Li1221  Li1+  0.048  0.642  0.928  0.720
  Li7248  Li1+  0.998  0.498  0.786  0.720
  Li4699  Li1+  0.448  0.952  0.601  0.720
  Li7053  Li1+  0.800  0.496  0.088  0.720
  Li987  Li1+  0.048  0.752  0.001  0.721
  Li1962  Li1+  0.350  0.254  0.171  0.722
  Li5600  Li1+  0.654  0.452  0.569  0.722
  Li5019  Li1+  0.648  0.152  0.601  0.723
  Li2970  Li1+  0.252  0.856  0.232  0.723
  Li5971  Li1+  0.650  0.740  0.694  0.723
  Li4324  Li1+  0.494  0.700  0.549  0.724
  Li2439  Li1+  0.346  0.548  0.647  0.724
  Li3911  Li1+  0.546  0.548  0.247  0.724
  Li5711  Li1+  0.642  0.454  0.983  0.725
  Li6585  Li1+  0.952  0.044  0.469  0.725
  Li1841  Li1+  0.350  0.152  0.603  0.726
  Li6288  Li1+  0.798  0.898  0.786  0.727
  Li5232  Li1+  0.748  0.350  0.356  0.727
  Li804  Li1+  0.094  0.500  0.549  0.727
  Li1829  Li1+  0.298  0.100  0.647  0.728
  Li2451  Li1+  0.250  0.540  0.694  0.729
  Li591  Li1+  0.042  0.254  0.983  0.729
  Li1607  Li1+  0.346  0.148  0.047  0.730
  Li2552  Li1+  0.348  0.450  0.826  0.730
  Li4842  Li1+  0.750  0.054  0.171  0.730
  Li1374  Li1+  0.056  0.842  0.314  0.730
  Li2899  Li1+  0.250  0.940  0.094  0.731
  Li1509  Li1+  0.098  0.900  0.647  0.731
  Li5766  Li1+  0.754  0.644  0.122  0.732
  Li2610  Li1+  0.348  0.638  0.015  0.732
  Li7822  Li1+  0.998  0.992  0.447  0.733
  Li7146  Li1+  0.950  0.454  0.371  0.733
  Li6962  Li1+  0.948  0.237  0.615  0.733
  Li2957  Li1+  0.200  0.896  0.288  0.734
  Li7217  Li1+  0.950  0.552  0.403  0.735
  Li4472  Li1+  0.548  0.650  0.826  0.735
  Li1777  Li1+  0.350  0.152  0.403  0.737
  Li1307  Li1+  0.048  0.952  0.001  0.737
  Li3854  Li1+  0.598  0.592  0.047  0.738
  Li3304  Li1+  0.498  0.110  0.251  0.738
  Li6321  Li1+  0.750  0.952  0.603  0.738
  Li6876  Li1+  0.850  0.350  0.556  0.738
  Li7887  Li1+  0.842  0.854  0.783  0.739
  Li4442  Li1+  0.452  0.656  0.832  0.740
  Li926  Li1+  0.056  0.442  0.914  0.740
  Li6890  Li1+  0.950  0.254  0.571  0.741
  Li412  Li1+  0.050  0.350  0.356  0.741
  Li2193  Li1+  0.398  0.200  0.851  0.741
  Li4572  Li1+  0.450  0.950  0.356  0.742
  Li5388  Li1+  0.617  0.242  0.853  0.743
  Li2404  Li1+  0.294  0.500  0.549  0.743
  Li7908  Li1+  0.894  0.900  0.749  0.743
  Li3759  Li1+  0.548  0.342  0.693  0.743
  Li4138  Li1+  0.550  0.454  0.971  0.743
  Li3505  Li1+  0.550  0.152  0.803  0.744
  Li4743  Li1+  0.546  0.948  0.847  0.744
  Li3095  Li1+  0.248  0.862  0.689  0.745
  Li5624  Li1+  0.748  0.450  0.426  0.745
  Li7107  Li1+  0.804  0.592  0.350  0.746
  Li540  Li1+  0.050  0.350  0.756  0.746
  Li7644  Li1+  0.850  0.750  0.956  0.746
  Li2952  Li1+  0.250  0.950  0.249  0.746
  Li2593  Li1+  0.296  0.667  0.050  0.747
  Li4765  Li1+  0.448  0.998  0.881  0.747
  Li3385  Li1+  0.552  0.044  0.469  0.748
  Li4950  Li1+  0.646  0.046  0.472  0.748
  Li7206  Li1+  0.900  0.596  0.513  0.748
  Li6862  Li1+  0.998  0.392  0.447  0.749
  Li7793  Li1+  0.950  0.952  0.203  0.749
  Li6403  Li1+  0.804  0.192  0.150  0.750
  Li4399  Li1+  0.548  0.742  0.693  0.750
  Li5788  Li1+  0.650  0.750  0.156  0.750
  Li596  Li1+  0.046  0.356  0.950  0.751
  Li929  Li1+  0.096  0.467  0.850  0.752
  Li347  Li1+  0.048  0.352  0.001  0.752
  Li3294  Li1+  0.456  0.042  0.314  0.752
  Li4013  Li1+  0.546  0.444  0.514  0.755
  Li399  Li1+  0.042  0.254  0.383  0.755
  Li4229  Li1+  0.448  0.642  0.328  0.756
  Li4445  Li1+  0.448  0.798  0.881  0.756
  Li2691  Li1+  0.204  0.792  0.550  0.756
  Li5531  Li1+  0.648  0.552  0.201  0.757
  Li5039  Li1+  0.748  0.142  0.693  0.757
  Li5786  Li1+  0.652  0.656  0.032  0.757
  Li262  Li1+  0.154  0.044  0.922  0.757
  Li5359  Li1+  0.748  0.342  0.693  0.758
  Li7466  Li1+  0.950  0.654  0.371  0.759
  Li6885  Li1+  0.898  0.300  0.447  0.759
  Li4999  Li1+  0.746  0.148  0.647  0.759
  Li2656  Li1+  0.254  0.652  0.369  0.759
  Li113  Li1+  0.150  0.152  0.203  0.759
  Li3027  Li1+  0.250  0.940  0.494  0.760
  Li5701  Li1+  0.648  0.442  0.928  0.761
  Li7187  Li1+  0.850  0.540  0.494  0.762
  Li4257  Li1+  0.496  0.667  0.250  0.763
  Li4109  Li1+  0.400  0.496  0.888  0.763
  Li6880  Li1+  0.854  0.252  0.569  0.763
  Li5167  Li1+  0.748  0.342  0.093  0.763
  Li2789  Li1+  0.298  0.700  0.647  0.763
  Li1926  Li1+  0.354  0.244  0.122  0.764
  Li5769  Li1+  0.606  0.742  0.115  0.765
  Li2140  Li1+  0.250  0.350  0.756  0.765
  Li1072  Li1+  0.148  0.750  0.356  0.766
  Li559  Li1+  0.148  0.342  0.693  0.766
  Li2488  Li1+  0.348  0.450  0.626  0.767
  Li6826  Li1+  0.950  0.254  0.371  0.767
  Li6704  Li1+  0.948  0.150  0.956  0.767
  Li6407  Li1+  0.946  0.148  0.047  0.767
  Li2204  Li1+  0.250  0.350  0.956  0.767
  Li5318  Li1+  0.754  0.244  0.722  0.767
  Li983  Li1+  0.048  0.662  0.089  0.768
  Li6945  Li1+  0.896  0.267  0.650  0.768
  Li6543  Li1+  0.842  0.054  0.583  0.769
  Li4685  Li1+  0.400  0.896  0.688  0.769
  Li441  Li1+  0.152  0.244  0.269  0.769
  Li1074  Li1+  0.148  0.637  0.215  0.770
  Li3296  Li1+  0.454  0.052  0.369  0.770
  Li7175  Li1+  0.946  0.548  0.447  0.770
  Li4998  Li1+  0.754  0.044  0.722  0.771
  Li1862  Li1+  0.354  0.044  0.922  0.771
  Li3055  Li1+  0.348  0.942  0.493  0.771
  Li3044  Li1+  0.294  0.900  0.549  0.772
  Li3982  Li1+  0.598  0.592  0.447  0.772
  Li1720  Li1+  0.348  0.050  0.226  0.772
  Li3262  Li1+  0.548  0.140  0.146  0.773
  Li2657  Li1+  0.296  0.667  0.250  0.773
  Li1049  Li1+  0.050  0.631  0.211  0.774
  Li2147  Li1+  0.298  0.200  0.613  0.775
  Li2824  Li1+  0.250  0.750  0.849  0.775
  Li2637  Li1+  0.200  0.696  0.288  0.775
  Li4196  Li1+  0.494  0.700  0.149  0.776
  Li5350  Li1+  0.700  0.396  0.713  0.776
  Li854  Li1+  0.046  0.446  0.672  0.776
  Li3000  Li1+  0.348  0.850  0.226  0.776
  Li7318  Li1+  0.846  0.446  0.872  0.777
  Li7396  Li1+  0.894  0.700  0.149  0.777
  Li2276  Li1+  0.294  0.500  0.149  0.778
  Li4035  Li1+  0.404  0.592  0.750  0.778
  Li207  Li1+  0.042  0.054  0.783  0.778
  Li1052  Li1+  0.050  0.750  0.356  0.778
  Li7672  Li1+  0.948  0.650  0.826  0.779
  Li6193  Li1+  0.750  0.952  0.203  0.779
  Li6867  Li1+  0.850  0.340  0.494  0.779
  Li3791  Li1+  0.442  0.254  0.983  0.780
  Li6983  Li1+  0.946  0.348  0.847  0.780
  Li2936  Li1+  0.348  0.850  0.026  0.781
  Li6747  Li1+  0.848  0.352  0.001  0.781
  Li3355  Li1+  0.448  0.152  0.401  0.782
  Li582  Li1+  0.154  0.244  0.922  0.784
  Li4613  Li1+  0.448  0.842  0.528  0.784
  Li2115  Li1+  0.204  0.392  0.750  0.785
  Li6902  Li1+  0.952  0.346  0.540  0.785
  Li6343  Li1+  0.746  0.948  0.847  0.786
  Li2043  Li1+  0.348  0.204  0.282  0.786
  Li4382  Li1+  0.456  0.642  0.714  0.787
  Li6211  Li1+  0.604  0.992  0.550  0.787
  Li1351  Li1+  0.146  0.948  0.247  0.787
  Li2583  Li1+  0.248  0.662  0.089  0.787
  Li5960  Li1+  0.650  0.750  0.649  0.787
  Li6577  Li1+  0.950  0.152  0.403  0.788
  Li5404  Li1+  0.650  0.350  0.956  0.788
  Li3542  Li1+  0.446  0.246  0.072  0.788
  Li4997  Li1+  0.648  0.042  0.728  0.789
  Li5916  Li1+  0.650  0.750  0.556  0.790
  Li1764  Li1+  0.294  0.100  0.549  0.790
  Li2644  Li1+  0.246  0.756  0.350  0.790
  Li3941  Li1+  0.498  0.500  0.247  0.790
  Li1002  Li1+  0.150  0.654  0.171  0.791
  Li5930  Li1+  0.750  0.654  0.571  0.791
  Li6427  Li1+  0.848  0.152  0.001  0.791
  Li6726  Li1+  0.954  0.244  0.122  0.791
  Li3309  Li1+  0.546  0.044  0.314  0.791
  Li4845  Li1+  0.746  0.044  0.114  0.791
  Li1009  Li1+  0.150  0.752  0.003  0.792
  Li497  Li1+  0.150  0.352  0.403  0.792
  Li2694  Li1+  0.354  0.644  0.522  0.792
  Li7514  Li1+  0.852  0.656  0.432  0.793
  Li6022  Li1+  0.754  0.644  0.922  0.793
  Li7665  Li1+  0.950  0.752  0.803  0.793
  Li1487  Li1+  0.042  0.854  0.783  0.793
  Li2971  Li1+  0.248  0.952  0.201  0.793
  Li5654  Li1+  0.646  0.446  0.672  0.794
  Li5965  Li1+  0.600  0.696  0.688  0.794
  Li476  Li1+  0.050  0.350  0.556  0.794
  Li7974  Li1+  0.900  0.996  0.913  0.794
  Li6639  Li1+  0.948  0.142  0.693  0.794
  Li1656  Li1+  0.348  0.050  0.026  0.795
  Li6255  Li1+  0.748  0.942  0.493  0.795
  Li7536  Li1+  0.948  0.750  0.556  0.795
  Li4563  Li1+  0.450  0.940  0.294  0.796
  Li3335  Li1+  0.546  0.148  0.447  0.796
  Li3513  Li1+  0.552  0.044  0.869  0.797
  Li2927  Li1+  0.348  0.942  0.093  0.797
  Li7153  Li1+  0.950  0.552  0.203  0.797
  Li2086  Li1+  0.300  0.396  0.513  0.797
  Li544  Li1+  0.054  0.252  0.769  0.797
  Li5610  Li1+  0.750  0.454  0.571  0.797
  Li7537  Li1+  0.950  0.752  0.403  0.798
  Li6855  Li1+  0.946  0.348  0.447  0.799
  Li3272  Li1+  0.450  0.150  0.249  0.799
  Li789  Li1+  0.050  0.506  0.419  0.799
  Li1529  Li1+  0.152  0.844  0.669  0.801
  Li986  Li1+  0.052  0.656  0.032  0.801
  Li4616  Li1+  0.450  0.950  0.449  0.803
  Li2374  Li1+  0.354  0.444  0.522  0.803
  Li1799  Li1+  0.346  0.148  0.647  0.804
  Li3885  Li1+  0.546  0.444  0.114  0.804
  Li5317  Li1+  0.648  0.242  0.728  0.804
  Li4990  Li1+  0.748  0.140  0.546  0.804
  Li3145  Li1+  0.206  0.942  0.915  0.804
  Li3569  Li1+  0.550  0.352  0.003  0.805
  Li328  Li1+  0.050  0.350  0.049  0.805
  Li5895  Li1+  0.746  0.748  0.447  0.805
  Li4869  Li1+  0.648  0.042  0.328  0.806
  Li1435  Li1+  0.048  0.952  0.401  0.806
  Li5980  Li1+  0.650  0.750  0.756  0.806
  Li2846  Li1+  0.256  0.642  0.914  0.807
  Li4580  Li1+  0.494  0.900  0.349  0.807
  Li5433  Li1+  0.752  0.244  0.869  0.808
  Li5718  Li1+  0.646  0.446  0.872  0.808
  Li2984  Li1+  0.298  0.910  0.251  0.808
  Li6264  Li1+  0.748  0.850  0.426  0.808
  Li1263  Li1+  0.148  0.742  0.893  0.810
  Li2460  Li1+  0.250  0.550  0.756  0.810
  Li5425  Li1+  0.750  0.352  0.803  0.810
  Li7791  Li1+  0.948  0.942  0.293  0.810
  Li5807  Li1+  0.748  0.742  0.093  0.810
  Li5645  Li1+  0.600  0.496  0.688  0.811
  Li3562  Li1+  0.550  0.254  0.171  0.811
  Li2701  Li1+  0.200  0.696  0.488  0.812
  Li4251  Li1+  0.448  0.752  0.201  0.812
  Li6102  Li1+  0.646  0.846  0.072  0.812
  Li3620  Li1+  0.494  0.300  0.349  0.812
  Li1997  Li1+  0.200  0.296  0.288  0.813
  Li911  Li1+  0.042  0.454  0.983  0.813
  Li2858  Li1+  0.350  0.654  0.971  0.813
  Li2144  Li1+  0.254  0.252  0.769  0.813
  Li5866  Li1+  0.750  0.654  0.371  0.814
  Li4237  Li1+  0.400  0.696  0.288  0.814
  Li165  Li1+  0.098  0.100  0.447  0.814
  Li59  Li1+  0.148  0.004  0.082  0.814
  Li4202  Li1+  0.550  0.654  0.171  0.814
  Li1747  Li1+  0.250  0.140  0.494  0.814
  Li7652  Li1+  0.894  0.700  0.949  0.815
  Li2131  Li1+  0.250  0.340  0.694  0.815
  Li1458  Li1+  0.148  0.837  0.415  0.815
  Li3631  Li1+  0.548  0.342  0.293  0.816
  Li3680  Li1+  0.454  0.252  0.569  0.816
  Li3104  Li1+  0.254  0.852  0.769  0.816
  Li3078  Li1+  0.354  0.844  0.722  0.817
  Li4175  Li1+  0.442  0.654  0.183  0.818
  Li3859  Li1+  0.450  0.540  0.094  0.819
  Li2097  Li1+  0.350  0.352  0.403  0.819
  Li3174  Li1+  0.300  0.996  0.913  0.820
  Li3013  Li1+  0.248  0.842  0.528  0.821
  Li1543  Li1+  0.146  0.948  0.847  0.821
  Li3789  Li1+  0.400  0.296  0.888  0.821
  Li7515  Li1+  0.848  0.752  0.401  0.821
  Li4294  Li1+  0.554  0.644  0.522  0.821
  Li6046  Li1+  0.656  0.642  0.914  0.823
  Li6648  Li1+  0.948  0.050  0.626  0.823
  Li7046  Li1+  0.954  0.444  0.122  0.823
  Li988  Li1+  0.050  0.750  0.156  0.824
  Li7018  Li1+  0.950  0.254  0.971  0.824
  Li7584  Li1+  0.854  0.652  0.769  0.825
  Li4424  Li1+  0.450  0.750  0.849  0.825
  Li2737  Li1+  0.350  0.752  0.403  0.826
  Li3267  Li1+  0.404  0.192  0.350  0.827
  Li7708  Li1+  0.850  0.950  0.156  0.827
  Li1229  Li1+  -0.000  0.696  0.888  0.828
  Li3875  Li1+  0.498  0.400  0.013  0.828
  Li2863  Li1+  0.348  0.742  0.893  0.829
  Li7921  Li1+  0.950  0.952  0.603  0.829
  Li2808  Li1+  0.348  0.650  0.626  0.829
  Li6598  Li1+  0.954  0.044  0.722  0.829
  Li4128  Li1+  0.454  0.452  0.969  0.830
  Li7409  Li1+  0.950  0.752  0.003  0.830
  Li3463  Li1+  0.546  0.148  0.847  0.830
  Li6405  Li1+  0.848  0.042  0.128  0.830
  Li7914  Li1+  0.950  0.854  0.771  0.833
  Li2395  Li1+  0.248  0.552  0.401  0.833
  Li7780  Li1+  0.894  0.900  0.349  0.834
  Li3626  Li1+  0.550  0.254  0.371  0.834
  Li5926  Li1+  0.700  0.796  0.513  0.834
  Li1555  Li1+  0.050  0.940  0.894  0.834
  Li6948  Li1+  0.894  0.300  0.749  0.834
  Li3847  Li1+  0.546  0.548  0.047  0.834
  Li2312  Li1+  0.250  0.550  0.249  0.835
  Li4728  Li1+  0.548  0.850  0.626  0.836
  Li156  Li1+  0.050  0.150  0.556  0.836
  Li4488  Li1+  0.450  0.950  0.049  0.836
  Li7238  Li1+  0.954  0.444  0.722  0.837
  Li774  Li1+  0.154  0.444  0.522  0.837
  Li6662  Li1+  0.954  0.044  0.922  0.837
  Li4911  Li1+  0.748  0.142  0.293  0.837
  Li835  Li1+  0.004  0.592  0.750  0.838
  Li7535  Li1+  0.948  0.742  0.493  0.838
  Li7942  Li1+  0.954  0.844  0.922  0.838
  Li145  Li1+  0.198  -0.000  0.451  0.838
  Li6821  Li1+  0.898  0.300  0.247  0.838
  Li2209  Li1+  0.296  0.267  0.850  0.838
  Li6250  Li1+  0.750  0.854  0.571  0.839
  Li4815  Li1+  0.642  0.054  0.183  0.839
  Li7559  Li1+  0.946  0.748  0.647  0.840
  Li6961  Li1+  0.950  0.352  0.603  0.840
  Li4800  Li1+  0.581  0.840  0.851  0.840
  Li2851  Li1+  0.298  0.600  0.813  0.840
  Li2982  Li1+  0.300  0.996  0.313  0.841
  Li6513  Li1+  0.950  0.152  0.203  0.841
  Li2912  Li1+  0.254  0.852  0.169  0.841
  Li5290  Li1+  0.750  0.254  0.571  0.842
  Li924  Li1+  0.050  0.550  0.956  0.842
  Li4522  Li1+  0.550  0.854  0.171  0.842
  Li431  Li1+  0.148  0.342  0.293  0.842
  Li915  Li1+  0.050  0.540  0.894  0.842
  Li2080  Li1+  0.254  0.252  0.569  0.842
  Li751  Li1+  0.148  0.542  0.293  0.842
  Li3971  Li1+  0.404  0.592  0.550  0.843
  Li5910  Li1+  0.646  0.646  0.472  0.843
  Li1754  Li1+  0.252  0.056  0.432  0.843
  Li7622  Li1+  0.954  0.644  0.922  0.843
  Li7076  Li1+  0.894  0.500  0.149  0.843
  Li7196  Li1+  0.850  0.550  0.556  0.843
  Li4423  Li1+  0.546  0.748  0.847  0.844
  Li7345  Li1+  0.950  0.552  0.803  0.844
  Li1770  Li1+  0.350  0.054  0.571  0.844
  Li2321  Li1+  0.398  0.400  0.251  0.845
  Li7301  Li1+  0.848  0.442  0.928  0.845
  Li6942  Li1+  0.856  0.242  0.714  0.845
  Li1721  Li1+  0.352  0.044  0.269  0.845
  Li5103  Li1+  0.748  0.142  0.893  0.846
  Li4944  Li1+  0.798  0.098  0.586  0.846
  Li3923  Li1+  0.450  0.540  0.294  0.848
  Li2394  Li1+  0.252  0.456  0.432  0.848
  Li4115  Li1+  0.450  0.540  0.894  0.848
  Li2373  Li1+  0.248  0.442  0.528  0.848
  Li2211  Li1+  0.298  0.200  0.813  0.848
  Li1159  Li1+  0.146  0.748  0.647  0.850
  Li3398  Li1+  0.554  0.044  0.722  0.850
  Li2005  Li1+  0.250  0.306  0.219  0.850
  Li6449  Li1+  0.950  0.152  0.003  0.851
  Li1608  Li1+  0.250  0.150  0.049  0.852
  Li966  Li1+  0.154  0.644  0.122  0.852
  Li4931  Li1+  0.604  0.192  0.550  0.853
  Li520  Li1+  0.050  0.350  0.649  0.854
  Li5139  Li1+  0.650  0.340  0.094  0.854
  Li2051  Li1+  0.204  0.392  0.550  0.854
  Li4099  Li1+  0.404  0.592  0.950  0.855
  Li6820  Li1+  0.894  0.300  0.349  0.855
  Li6683  Li1+  0.848  0.152  0.801  0.855
  Li1842  Li1+  0.348  0.037  0.615  0.855
  Li5763  Li1+  0.604  0.792  0.150  0.855
  Li1564  Li1+  0.050  0.950  0.956  0.856
  Li899  Li1+  0.004  0.592  0.950  0.856
  Li3075  Li1+  0.204  0.992  0.750  0.856
  Li4891  Li1+  0.648  0.152  0.201  0.857
  Li7579  Li1+  0.848  0.752  0.601  0.857
  Li3823  Li1+  0.548  0.342  0.893  0.858
  Li7621  Li1+  0.848  0.642  0.928  0.858
  Li1037  Li1+  -0.000  0.696  0.288  0.859
  Li2629  Li1+  0.248  0.642  0.328  0.859
  Li7003  Li1+  0.848  0.352  0.801  0.859
  Li6875  Li1+  0.848  0.352  0.401  0.859
  Li6544  Li1+  0.998  0.098  0.586  0.859
  Li3100  Li1+  0.250  0.950  0.756  0.859
  Li7399  Li1+  0.894  0.752  0.181  0.860
  Li6931  Li1+  0.850  0.340  0.694  0.860
  Li3589  Li1+  0.448  0.242  0.328  0.860
  Li7964  Li1+  0.850  0.950  0.956  0.861
  Li5832  Li1+  0.650  0.750  0.249  0.862
  Li5979  Li1+  0.648  0.752  0.601  0.862
  Li785  Li1+  0.198  0.400  0.451  0.863
  Li3354  Li1+  0.452  0.056  0.432  0.863
  Li6147  Li1+  0.604  0.992  0.350  0.863
  Li4102  Li1+  0.554  0.444  0.922  0.864
  Li6739  Li1+  0.850  0.340  0.094  0.864
  Li952  Li1+  0.148  0.450  0.826  0.865
  Li6790  Li1+  0.954  0.244  0.322  0.865
  Li2078  Li1+  0.256  0.242  0.514  0.865
  Li1116  Li1+  0.050  0.750  0.556  0.865
  Li6106  Li1+  0.652  0.856  0.032  0.867
  Li7491  Li1+  0.804  0.792  0.550  0.867
  Li3665  Li1+  0.598  0.200  0.451  0.868
  Li3930  Li1+  0.452  0.456  0.232  0.869
  Li2819  Li1+  0.204  0.792  0.950  0.869
  Li2323  Li1+  0.250  0.540  0.294  0.869
  Li6186  Li1+  0.750  0.854  0.371  0.869
  Li3996  Li1+  0.450  0.550  0.556  0.870
  Li2467  Li1+  0.298  0.400  0.613  0.870
  Li3690  Li1+  0.550  0.254  0.571  0.870
  Li4808  Li1+  0.650  0.150  0.049  0.871
  Li5703  Li1+  0.746  0.548  0.847  0.872
  Li175  Li1+  0.148  0.142  0.493  0.872
  Li3205  Li1+  0.448  0.042  0.128  0.872
  Li677  Li1+  0.098  0.500  0.047  0.873
  Li5348  Li1+  0.694  0.300  0.749  0.873
  Li3715  Li1+  0.404  0.392  0.750  0.873
  Li7407  Li1+  0.948  0.742  0.093  0.873
  Li7781  Li1+  0.898  0.900  0.247  0.873
  Li4483  Li1+  0.404  0.992  0.150  0.873
  Li2979  Li1+  0.298  0.800  0.213  0.873
  Li6129  Li1+  0.750  0.952  0.003  0.873
  Li1244  Li1+  0.050  0.750  0.956  0.873
  Li5199  Li1+  0.642  0.254  0.383  0.873
  Li4964  Li1+  0.694  0.100  0.549  0.874
  Li5034  Li1+  0.750  0.054  0.771  0.874
  Li5123  Li1+  0.604  0.392  0.150  0.875
  Li4266  Li1+  0.550  0.654  0.371  0.875
  Li5389  Li1+  0.600  0.296  0.888  0.875
  Li3498  Li1+  0.550  0.054  0.971  0.876
  Li6127  Li1+  0.748  0.942  0.093  0.876
  Li5256  Li1+  0.650  0.350  0.449  0.877
  Li760  Li1+  0.148  0.450  0.226  0.877
  Li5063  Li1+  0.746  0.148  0.847  0.878
  Li7131  Li1+  0.848  0.552  0.201  0.879
  Li7949  Li1+  0.800  0.896  0.888  0.879
  Li3320  Li1+  0.548  0.050  0.226  0.880
  Li3528  Li1+  0.450  0.350  0.049  0.880
  Li569  Li1+  0.152  0.244  0.669  0.880
  Li4359  Li1+  0.546  0.748  0.647  0.881
  Li5379  Li1+  0.604  0.392  0.950  0.881
  Li1818  Li1+  0.252  0.056  0.632  0.881
  Li643  Li1+  0.004  0.592  0.150  0.882
  Li904  Li1+  0.050  0.550  0.849  0.883
  Li4187  Li1+  0.448  0.752  0.001  0.883
  Li2949  Li1+  0.248  0.842  0.328  0.883
  Li5817  Li1+  0.752  0.644  0.069  0.883
  Li2640  Li1+  0.398  0.698  0.386  0.884
  Li3651  Li1+  0.404  0.392  0.550  0.884
  Li7993  Li1+  0.952  0.844  0.869  0.885
  Li195  Li1+  0.004  0.192  0.750  0.885
  Li6151  Li1+  0.746  0.948  0.247  0.886
  Li2759  Li1+  0.346  0.748  0.647  0.886
  Li7944  Li1+  0.850  0.950  0.849  0.886
  Li807  Li1+  0.094  0.552  0.581  0.886
  Li2396  Li1+  0.250  0.550  0.556  0.887
  Li7183  Li1+  0.842  0.454  0.583  0.887
  Li6684  Li1+  0.850  0.150  0.956  0.888
  Li2513  Li1+  0.398  0.400  0.851  0.888
  Li3556  Li1+  0.494  0.300  0.149  0.889
  Li5604  Li1+  0.694  0.500  0.549  0.889
  Li5574  Li1+  0.754  0.444  0.522  0.889
  Li7501  Li1+  0.800  0.696  0.488  0.889
  Li4252  Li1+  0.450  0.750  0.356  0.890
  Li2161  Li1+  0.350  0.352  0.603  0.890
  Li874  Li1+  0.150  0.454  0.771  0.890
  Li7311  Li1+  0.842  0.454  0.983  0.890
  Li2489  Li1+  0.352  0.444  0.669  0.890
  Li6471  Li1+  0.946  0.148  0.247  0.890
  Li734  Li1+  0.056  0.442  0.314  0.890
  Li4549  Li1+  0.448  0.842  0.328  0.891
  Li3590  Li1+  0.554  0.244  0.322  0.891
  Li2515  Li1+  0.250  0.540  0.894  0.891
  Li6456  Li1+  0.948  0.050  0.026  0.891
  Li945  Li1+  0.150  0.552  0.803  0.892
  Li1805  Li1+  0.200  0.096  0.688  0.892
  Li2588  Li1+  0.250  0.750  0.156  0.892
  Li518  Li1+  0.154  0.244  0.722  0.892
  Li5005  Li1+  0.600  0.096  0.688  0.893
  Li2565  Li1+  0.248  0.642  0.128  0.893
  Li263  Li1+  0.146  0.148  0.847  0.893
  Li7760  Li1+  0.998  0.898  0.386  0.893
  Li490  Li1+  0.150  0.254  0.571  0.894
  Li6043  Li1+  0.648  0.752  0.801  0.894
  Li2387  Li1+  0.250  0.540  0.494  0.895
  Li6439  Li1+  0.894  0.152  0.181  0.895
  Li2282  Li1+  0.350  0.454  0.171  0.895
  Li7850  Li1+  0.950  0.854  0.571  0.895
  Li5148  Li1+  0.650  0.350  0.156  0.896
  Li6107  Li1+  0.648  0.952  0.001  0.896
  Li7589  Li1+  0.898  0.700  0.647  0.897
  Li7460  Li1+  0.894  0.700  0.349  0.897
  Li1735  Li1+  0.346  0.148  0.447  0.898
  Li3889  Li1+  0.550  0.552  0.003  0.898
  Li4934  Li1+  0.754  0.044  0.522  0.899
  Li1272  Li1+  0.148  0.650  0.826  0.899
  Li5395  Li1+  0.650  0.340  0.894  0.899
  Li6415  Li1+  0.842  0.054  0.183  0.899
  Li3119  Li1+  0.348  0.942  0.693  0.899
  Li4935  Li1+  0.746  0.148  0.447  0.899
  Li7237  Li1+  0.848  0.442  0.728  0.899
  Li2778  Li1+  0.252  0.656  0.632  0.900
  Li6442  Li1+  0.950  0.054  0.171  0.900
  Li4883  Li1+  0.650  0.140  0.294  0.901
  Li583  Li1+  0.146  0.348  0.847  0.901
  Li2309  Li1+  0.248  0.442  0.328  0.901
  Li1450  Li1+  0.150  0.854  0.571  0.901
  Li3331  Li1+  0.404  0.192  0.550  0.902
  Li6675  Li1+  0.850  0.140  0.894  0.902
  Li2963  Li1+  0.250  0.940  0.294  0.902
  Li6733  Li1+  0.800  0.296  0.088  0.904
  Li2579  Li1+  0.250  0.740  0.094  0.904
  Li5955  Li1+  0.604  0.792  0.750  0.904
  Li5061  Li1+  0.648  0.042  0.928  0.904
  Li7844  Li1+  0.894  0.900  0.549  0.904
  Li2012  Li1+  0.250  0.350  0.356  0.905
  Li2003  Li1+  0.250  0.340  0.294  0.906
  Li1672  Li1+  0.250  0.150  0.249  0.906
  Li454  Li1+  0.154  0.244  0.522  0.906
  Li5162  Li1+  0.750  0.254  0.171  0.906
  Li5327  Li1+  0.642  0.254  0.783  0.907
  Li1861  Li1+  0.248  0.042  0.928  0.909
  Li7686  Li1+  0.954  0.844  0.122  0.911
  Li4231  Li1+  0.546  0.748  0.247  0.911
  Li1619  Li1+  0.250  0.140  0.094  0.912
  Li7865  Li1+  0.952  0.844  0.469  0.913
  Li5893  Li1+  0.648  0.642  0.528  0.914
  Li4068  Li1+  0.494  0.500  0.749  0.914
  Li7067  Li1+  0.848  0.552  0.001  0.915
  Li3399  Li1+  0.546  0.148  0.647  0.916
  Li653  Li1+  -0.000  0.496  0.088  0.916
  Li712  Li1+  0.050  0.550  0.249  0.916
  Li2278  Li1+  0.300  0.596  0.113  0.916
  Li3448  Li1+  0.548  0.050  0.626  0.917
  Li3370  Li1+  0.550  0.054  0.571  0.917
  Li4871  Li1+  0.746  0.148  0.247  0.918
  Li1425  Li1+  0.198  0.800  0.451  0.918
  Li269  Li1+  -0.000  0.096  0.888  0.918
  Li4719  Li1+  0.548  0.942  0.693  0.918
  Li3769  Li1+  0.552  0.244  0.669  0.918
  Li220  Li1+  0.050  0.150  0.756  0.919
  Li7011  Li1+  0.898  0.200  0.813  0.920
  Li6698  Li1+  0.950  0.054  0.971  0.920
  Li4650  Li1+  0.550  0.854  0.571  0.920
  Li646  Li1+  0.154  0.444  0.122  0.921
  Li1209  Li1+  0.152  0.644  0.669  0.921
  Li561  Li1+  0.150  0.352  0.603  0.921
  Li7707  Li1+  0.848  0.952  0.001  0.922
  Li4371  Li1+  0.450  0.740  0.694  0.923
  Li4611  Li1+  0.404  0.992  0.550  0.923
  Li6122  Li1+  0.750  0.854  0.171  0.923
  Li6073  Li1+  0.752  0.644  0.869  0.924
  Li69  Li1+  0.048  0.042  0.328  0.925
  Li2823  Li1+  0.346  0.748  0.847  0.925
  Li7437  Li1+  0.800  0.696  0.288  0.925
  Li4771  Li1+  0.498  0.800  0.813  0.926
  Li1057  Li1+  0.096  0.667  0.250  0.926
  Li2643  Li1+  0.250  0.740  0.294  0.926
  Li1498  Li1+  0.052  0.856  0.632  0.926
  Li106  Li1+  0.150  0.054  0.371  0.927
  Li5925  Li1+  0.698  0.700  0.447  0.927
  Li7260  Li1+  0.850  0.550  0.756  0.927
  Li603  Li1+  0.048  0.352  0.801  0.927
  Li7922  Li1+  0.948  0.837  0.615  0.928
  Li5226  Li1+  0.750  0.254  0.371  0.928
  Li4739  Li1+  0.404  0.992  0.950  0.929
  Li3  Li1+  0.004  0.192  0.150  0.929
  Li390  Li1+  0.154  0.244  0.322  0.930
  Li3973  Li1+  0.448  0.442  0.528  0.930
  Li5674  Li1+  0.750  0.454  0.771  0.930
  Li4571  Li1+  0.448  0.952  0.201  0.930
  Li1188  Li1+  0.094  0.700  0.749  0.932
  Li3961  Li1+  0.552  0.444  0.269  0.932
  Li327  Li1+  0.146  0.348  0.047  0.932
  Li5905  Li1+  0.798  0.600  0.451  0.933
  Li810  Li1+  0.150  0.454  0.571  0.933
  Li4813  Li1+  0.600  0.096  0.088  0.934
  Li2212  Li1+  0.294  0.300  0.949  0.935
  Li2671  Li1+  0.348  0.742  0.293  0.935
  Li3912  Li1+  0.450  0.550  0.249  0.936
  Li2459  Li1+  0.248  0.552  0.601  0.936
  Li2843  Li1+  0.248  0.752  0.801  0.937
  Li5871  Li1+  0.748  0.742  0.293  0.937
  Li5467  Li1+  0.648  0.552  0.001  0.938
  Li6364  Li1+  0.650  0.950  0.956  0.938
  Li6038  Li1+  0.646  0.646  0.872  0.938
  Li7452  Li1+  0.850  0.750  0.356  0.939
  Li1427  Li1+  0.050  0.940  0.494  0.939
  Li71  Li1+  0.146  0.148  0.247  0.939
  Li198  Li1+  0.154  0.044  0.722  0.940
  Li1352  Li1+  0.050  0.950  0.249  0.940
  Li6224  Li1+  0.798  0.898  0.586  0.940
  Li7181  Li1+  0.800  0.496  0.488  0.942
  Li548  Li1+  0.094  0.300  0.749  0.942
  Li584  Li1+  0.050  0.350  0.849  0.942
  Li1642  Li1+  0.350  0.054  0.171  0.942
  Li1875  Li1+  0.250  0.140  0.894  0.944
  Li5446  Li1+  0.754  0.444  0.122  0.944
  Li1400  Li1+  0.148  0.850  0.226  0.944
  Li100  Li1+  0.094  0.100  0.349  0.944
  Li775  Li1+  0.146  0.548  0.447  0.945
  Li4506  Li1+  0.452  0.856  0.032  0.945
  Li847  Li1+  0.042  0.454  0.783  0.946
  Li6664  Li1+  0.850  0.150  0.849  0.947
  Li4422  Li1+  0.554  0.644  0.922  0.947
  Li6435  Li1+  0.898  -0.000  0.013  0.947
  Li2715  Li1+  0.248  0.752  0.401  0.948
  Li4714  Li1+  0.550  0.854  0.771  0.948
  Li1330  Li1+  0.148  0.838  0.015  0.948
  Li5767  Li1+  0.746  0.748  0.047  0.948
  Li6001  Li1+  0.750  0.752  0.603  0.948
  Li3934  Li1+  0.456  0.442  0.314  0.949
  Li7117  Li1+  0.800  0.496  0.288  0.949
  Li2268  Li1+  0.250  0.550  0.156  0.950
  Li5092  Li1+  0.694  0.100  0.949  0.950
  Li771  Li1+  0.004  0.592  0.550  0.951
  Li7588  Li1+  0.894  0.700  0.749  0.951
  Li5211  Li1+  0.648  0.352  0.201  0.952
  Li903  Li1+  0.146  0.548  0.847  0.952
  Li6419  Li1+  0.850  0.140  0.094  0.952
  Li1819  Li1+  0.248  0.152  0.601  0.953
  Li1219  Li1+  0.004  0.792  0.950  0.953
  Li1096  Li1+  0.050  0.750  0.449  0.954
  Li356  Li1+  0.094  0.300  0.149  0.954
  Li4243  Li1+  0.450  0.740  0.294  0.955
  Li2573  Li1+  0.200  0.696  0.088  0.955
  Li2799  Li1+  0.348  0.742  0.693  0.955
  Li2307  Li1+  0.204  0.592  0.350  0.956
  Li2880  Li1+  0.381  0.640  0.851  0.956
  Li5851  Li1+  0.648  0.752  0.201  0.956
  Li2788  Li1+  0.294  0.700  0.749  0.957
  Li3219  Li1+  0.450  0.140  0.094  0.957
  Li7899  Li1+  0.848  0.952  0.601  0.957
  Li6520  Li1+  0.948  0.050  0.226  0.957
  Li5177  Li1+  0.752  0.244  0.069  0.957
  Li1088  Li1+  0.181  0.640  0.251  0.957
  Li6368  Li1+  0.654  0.852  0.969  0.958
  Li6152  Li1+  0.650  0.950  0.249  0.958
  Li1627  Li1+  0.248  0.152  0.001  0.958
  Li5745  Li1+  0.750  0.552  0.803  0.959
  Li133  Li1+  0.048  0.042  0.528  0.959
  Li667  Li1+  0.048  0.552  0.001  0.959
  Li5575  Li1+  0.746  0.548  0.447  0.960
  Li1135  Li1+  0.148  0.742  0.493  0.960
  Li426  Li1+  0.150  0.254  0.371  0.960
  Li333  Li1+  -0.000  0.296  0.088  0.961
  Li177  Li1+  0.150  0.152  0.403  0.962
  Li5587  Li1+  0.650  0.540  0.494  0.962
  Li7524  Li1+  0.894  0.700  0.549  0.963
  Li2893  Li1+  0.200  0.896  0.088  0.963
  Li7171  Li1+  0.804  0.592  0.550  0.963
  Li5738  Li1+  0.750  0.454  0.971  0.963
  Li1706  Li1+  0.350  0.054  0.371  0.963
  Li1479  Li1+  0.146  0.948  0.647  0.964
  Li1115  Li1+  0.048  0.752  0.401  0.964
  Li2033  Li1+  0.350  0.352  0.203  0.965
  Li7919  Li1+  0.948  0.942  0.693  0.965
  Li4453  Li1+  0.498  0.700  0.847  0.966
  Li200  Li1+  0.050  0.150  0.649  0.966
  Li6736  Li1+  0.998  0.298  0.186  0.967
  Li7821  Li1+  0.800  0.896  0.488  0.967
  Li963  Li1+  0.004  0.792  0.150  0.968
  Li1444  Li1+  0.094  0.900  0.549  0.968
  Li467  Li1+  0.050  0.340  0.494  0.968
  Li4103  Li1+  0.546  0.548  0.847  0.968
  Li781  Li1+  -0.000  0.496  0.488  0.971
  Li5328  Li1+  0.798  0.298  0.786  0.971
  Li2075  Li1+  0.248  0.352  0.401  0.972
  Li6535  Li1+  0.946  0.148  0.447  0.972
  Li839  Li1+  0.146  0.548  0.647  0.973
  Li4388  Li1+  0.494  0.700  0.749  0.974
  Li1928  Li1+  0.250  0.350  0.049  0.974
  Li7875  Li1+  0.804  0.992  0.750  0.974
  Li1657  Li1+  0.352  0.044  0.069  0.974
  Li6118  Li1+  0.700  0.996  0.113  0.975
  Li36  Li1+  0.094  0.100  0.149  0.975
  Li2660  Li1+  0.294  0.700  0.349  0.976
  Li3667  Li1+  0.450  0.340  0.494  0.976
  Li1031  Li1+  0.146  0.748  0.247  0.976
  Li1830  Li1+  0.300  0.196  0.713  0.977
  Li3656  Li1+  0.450  0.350  0.449  0.977
  Li4601  Li1+  0.552  0.844  0.269  0.978
  Li6533  Li1+  0.848  0.042  0.528  0.978
  Li475  Li1+  0.048  0.352  0.401  0.979
  Li4547  Li1+  0.404  0.992  0.350  0.979
  Li7530  Li1+  0.950  0.654  0.571  0.979
  Li2410  Li1+  0.350  0.454  0.571  0.980
  Li1927  Li1+  0.346  0.348  0.047  0.980
  Li860  Li1+  0.050  0.550  0.756  0.980
  Li840  Li1+  0.050  0.550  0.649  0.980
  Li4615  Li1+  0.546  0.948  0.447  0.980
  Li3981  Li1+  0.400  0.496  0.488  0.981
  Li5270  Li1+  0.646  0.246  0.472  0.981
  Li3242  Li1+  0.550  0.054  0.171  0.981
  Li1741  Li1+  0.200  0.096  0.488  0.982
  Li6116  Li1+  0.694  0.900  0.149  0.982
  Li992  Li1+  0.054  0.652  0.169  0.982
  Li1952  Li1+  0.254  0.252  0.169  0.983
  Li239  Li1+  0.148  0.142  0.693  0.983
  Li7279  Li1+  0.948  0.542  0.693  0.983
  Li796  Li1+  0.050  0.550  0.556  0.984
  Li1421  Li1+  -0.000  0.896  0.488  0.984
  Li7430  Li1+  0.954  0.644  0.322  0.984
  Li7471  Li1+  0.948  0.742  0.293  0.985
  Li4015  Li1+  0.548  0.542  0.493  0.985
  Li4173  Li1+  0.400  0.696  0.088  0.985
  Li4079  Li1+  0.548  0.542  0.693  0.985
  Li484  Li1+  0.094  0.300  0.549  0.985
  Li5028  Li1+  0.694  0.100  0.749  0.986
  Li4537  Li1+  0.552  0.844  0.069  0.986
  Li6791  Li1+  0.946  0.348  0.247  0.986
  Li1635  Li1+  0.298  -0.000  0.013  0.987
  Li2951  Li1+  0.346  0.948  0.247  0.987
  Li1124  Li1+  0.094  0.700  0.549  0.987
  Li7623  Li1+  0.946  0.748  0.847  0.988
  Li1252  Li1+  0.094  0.700  0.949  0.988
  Li6728  Li1+  0.850  0.350  0.049  0.988
  Li3163  Li1+  0.248  0.952  0.801  0.988
  Li2886  Li1+  0.354  0.844  0.122  0.988
  Li1293  Li1+  -0.000  0.896  0.088  0.988
  Li4039  Li1+  0.546  0.548  0.647  0.989
  Li6811  Li1+  0.848  0.352  0.201  0.989
  Li7629  Li1+  0.800  0.696  0.888  0.989
  Li6180  Li1+  0.694  0.900  0.349  0.989
  Li4708  Li1+  0.494  0.900  0.749  0.989
  Li3341  Li1+  0.400  0.096  0.488  0.989
  Li1859  Li1+  0.204  0.192  0.950  0.990
  Li6308  Li1+  0.694  0.900  0.749  0.990
  Li5511  Li1+  0.746  0.548  0.247  0.990
  Li7332  Li1+  0.894  0.500  0.949  0.990
  Li7771  Li1+  0.848  0.952  0.201  0.990
  Li6291  Li1+  0.650  0.940  0.694  0.990
  Li6472  Li1+  0.850  0.150  0.249  0.991
  Li5083  Li1+  0.648  0.152  0.801  0.991
  Li4557  Li1+  0.400  0.896  0.288  0.991
  Li6634  Li1+  0.950  0.054  0.771  0.992
  Li2375  Li1+  0.346  0.548  0.447  0.992
  Li7323  Li1+  0.848  0.552  0.801  0.992
  Li362  Li1+  0.150  0.254  0.171  0.993
  Li5802  Li1+  0.750  0.654  0.171  0.993
  Li2179  Li1+  0.204  0.392  0.950  0.993
  Li358  Li1+  0.100  0.396  0.113  0.993
  Li4143  Li1+  0.548  0.542  0.893  0.993
  Li7240  Li1+  0.850  0.550  0.649  0.993
  Li618  Li1+  0.150  0.254  0.971  0.993
  Li355  Li1+  0.098  0.200  0.013  0.994
  Li2504  Li1+  0.250  0.550  0.849  0.994
  Li4900  Li1+  0.694  0.100  0.349  0.994
  Li6470  Li1+  0.954  0.044  0.322  0.994
  Li7431  Li1+  0.946  0.748  0.247  0.995
  Li6797  Li1+  0.800  0.296  0.288  0.995
  Li1849  Li1+  0.352  0.044  0.669  0.995
  Li2120  Li1+  0.250  0.350  0.649  0.995
  Li5539  Li1+  0.698  0.400  0.213  0.995
  Li3750  Li1+  0.500  0.396  0.713  0.995
  Li7972  Li1+  0.894  0.900  0.949  0.995
  Li932  Li1+  0.094  0.500  0.949  0.996
  Li7699  Li1+  0.850  0.940  0.094  0.996
  Li5723  Li1+  0.648  0.552  0.801  0.997
  Li4807  Li1+  0.746  0.148  0.047  0.997
  Li2340  Li1+  0.294  0.500  0.349  0.997
  Li2218  Li1+  0.350  0.254  0.971  0.997
  Li4295  Li1+  0.546  0.748  0.447  0.997
  Li3976  Li1+  0.450  0.550  0.449  0.997
  Li1380  Li1+  0.094  0.900  0.349  0.997
  Li339  Li1+  0.050  0.340  0.094  0.997
  Li3619  Li1+  0.498  0.200  0.213  0.997
  Li7763  Li1+  0.850  0.940  0.294  0.997
  Li1508  Li1+  0.094  0.900  0.749  0.997
  Li1288  Li1+  0.050  0.950  0.049  0.997
  Li4132  Li1+  0.494  0.500  0.949  0.998
  Li7395  Li1+  0.898  0.600  0.013  0.998
  Li746  Li1+  0.150  0.454  0.371  0.998
  Li2055  Li1+  0.346  0.348  0.447  0.998
  Li420  Li1+  0.094  0.300  0.349  0.998
  Li967  Li1+  0.146  0.748  0.047  0.998
  Li6595  Li1+  0.804  0.192  0.750  0.998
  Li144  Li1+  0.198  0.098  0.586  0.998
  Li5283  Li1+  0.698  0.200  0.413  0.998
  Li5315  Li1+  0.604  0.392  0.750  0.999
  Li3227  Li1+  0.448  0.152  0.001  0.999
  Li1187  Li1+  0.098  0.600  0.613  0.999
  Li3527  Li1+  0.546  0.348  0.047  0.999
  Li3171  Li1+  0.298  0.800  0.813  0.999
  Li4763  Li1+  0.448  0.952  0.801  0.999
  Li2883  Li1+  0.204  0.992  0.150  0.999
  Li1060  Li1+  0.094  0.700  0.349  0.999
  Li4355  Li1+  0.404  0.792  0.750  0.999
  Li5999  Li1+  0.748  0.742  0.693  0.999
  Li6279  Li1+  0.746  0.948  0.647  0.999
  Li5128  Li1+  0.650  0.350  0.049  0.999
  Li1386  Li1+  0.150  0.854  0.371  1.000
  Li8  Li1+  0.050  0.150  0.049  1.000
  Li13  Li1+  -0.000  0.096  0.088  1.000
  Li19  Li1+  0.050  0.140  0.094  1.000
  Li35  Li1+  0.098  -0.000  0.013  1.000
  Li38  Li1+  0.100  0.196  0.113  1.000
  Li77  Li1+  -0.000  0.096  0.288  1.000
  Li80  Li1+  0.198  0.098  0.386  1.000
  Li99  Li1+  0.098  -0.000  0.213  1.000
  Li102  Li1+  0.100  0.196  0.313  1.000
  Li135  Li1+  0.146  0.148  0.447  1.000
  Li136  Li1+  0.050  0.150  0.449  1.000
  Li141  Li1+  -0.000  0.096  0.488  1.000
  Li147  Li1+  0.050  0.140  0.494  1.000
  Li163  Li1+  0.098  -0.000  0.413  1.000
  Li166  Li1+  0.100  0.196  0.513  1.000
  Li199  Li1+  0.146  0.148  0.647  1.000
  Li205  Li1+  -0.000  0.096  0.688  1.000
  Li208  Li1+  0.198  0.098  0.786  1.000
  Li209  Li1+  0.198  -0.000  0.651  1.000
  Li211  Li1+  0.050  0.140  0.694  1.000
  Li227  Li1+  0.098  -0.000  0.613  1.000
  Li228  Li1+  0.094  0.100  0.749  1.000
  Li230  Li1+  0.100  0.196  0.713  1.000
  Li264  Li1+  0.050  0.150  0.849  1.000
  Li272  Li1+  0.198  0.098  0.986  1.000
  Li275  Li1+  0.050  0.140  0.894  1.000
  Li283  Li1+  0.048  0.152  0.801  1.000
  Li291  Li1+  0.098  -0.000  0.813  1.000
  Li292  Li1+  0.094  0.100  0.949  1.000
  Li294  Li1+  0.100  0.196  0.913  1.000
  Li336  Li1+  0.198  0.298  0.186  1.000
  Li367  Li1+  0.148  0.342  0.093  1.000
  Li387  Li1+  0.004  0.392  0.350  1.000
  Li392  Li1+  0.050  0.350  0.249  1.000
  Li400  Li1+  0.198  0.298  0.386  1.000
  Li403  Li1+  0.050  0.340  0.294  1.000
  Li419  Li1+  0.098  0.200  0.213  1.000
  Li422  Li1+  0.100  0.396  0.313  1.000
  Li461  Li1+  -0.000  0.296  0.488  1.000
  Li464  Li1+  0.198  0.298  0.586  1.000
  Li483  Li1+  0.098  0.200  0.413  1.000
  Li486  Li1+  0.100  0.396  0.513  1.000
  Li525  Li1+  -0.000  0.296  0.688  1.000
  Li528  Li1+  0.198  0.298  0.786  1.000
  Li547  Li1+  0.098  0.200  0.613  1.000
  Li550  Li1+  0.100  0.396  0.713  1.000
  Li592  Li1+  0.198  0.298  0.986  1.000
  Li611  Li1+  0.098  0.200  0.813  1.000
  Li612  Li1+  0.094  0.300  0.949  1.000
  Li614  Li1+  0.100  0.396  0.913  1.000
  Li648  Li1+  0.050  0.550  0.049  1.000
  Li656  Li1+  0.198  0.498  0.186  1.000
  Li666  Li1+  0.052  0.456  0.032  1.000
  Li675  Li1+  0.098  0.400  0.013  1.000
  Li678  Li1+  0.100  0.596  0.113  1.000
  Li707  Li1+  0.004  0.592  0.350  1.000
  Li711  Li1+  0.146  0.548  0.247  1.000
  Li717  Li1+  -0.000  0.496  0.288  1.000
  Li720  Li1+  0.198  0.498  0.386  1.000
  Li723  Li1+  0.050  0.540  0.294  1.000
  Li739  Li1+  0.098  0.400  0.213  1.000
  Li740  Li1+  0.094  0.500  0.349  1.000
  Li742  Li1+  0.100  0.596  0.313  1.000
  Li776  Li1+  0.050  0.550  0.449  1.000
  Li784  Li1+  0.198  0.498  0.586  1.000
  Li803  Li1+  0.098  0.400  0.413  1.000
  Li845  Li1+  -0.000  0.496  0.688  1.000
  Li848  Li1+  0.198  0.498  0.786  1.000
  Li851  Li1+  0.050  0.540  0.694  1.000
  Li868  Li1+  0.094  0.500  0.749  1.000
  Li870  Li1+  0.100  0.596  0.713  1.000
  Li909  Li1+  -0.000  0.496  0.888  1.000
  Li912  Li1+  0.198  0.498  0.986  1.000
  Li968  Li1+  0.050  0.750  0.049  1.000
  Li976  Li1+  0.198  0.698  0.186  1.000
  Li995  Li1+  0.098  0.600  0.013  1.000
  Li996  Li1+  0.094  0.700  0.149  1.000
  Li998  Li1+  0.100  0.796  0.113  1.000
  Li1032  Li1+  0.050  0.750  0.249  1.000
  Li1040  Li1+  0.198  0.698  0.386  1.000
  Li1062  Li1+  0.100  0.796  0.313  1.000
  Li1083  Li1+  0.148  0.604  0.282  1.000
  Li1095  Li1+  0.146  0.748  0.447  1.000
  Li1101  Li1+  -0.000  0.696  0.488  1.000
  Li1104  Li1+  0.198  0.698  0.586  1.000
  Li1107  Li1+  0.050  0.740  0.494  1.000
  Li1123  Li1+  0.098  0.600  0.413  1.000
  Li1137  Li1+  0.150  0.752  0.403  1.000
  Li1160  Li1+  0.050  0.750  0.649  1.000
  Li1165  Li1+  -0.000  0.696  0.688  1.000
  Li1171  Li1+  0.050  0.740  0.694  1.000
  Li1179  Li1+  0.048  0.752  0.601  1.000
  Li1190  Li1+  0.100  0.796  0.713  1.000
  Li1223  Li1+  0.146  0.748  0.847  1.000
  Li1224  Li1+  0.050  0.750  0.849  1.000
  Li1232  Li1+  0.198  0.698  0.986  1.000
  Li1235  Li1+  0.050  0.740  0.894  1.000
  Li1251  Li1+  0.098  0.600  0.813  1.000
  Li1254  Li1+  0.100  0.796  0.913  1.000
  Li1287  Li1+  0.146  0.948  0.047  1.000
  Li1296  Li1+  0.198  0.898  0.186  1.000
  Li1299  Li1+  0.050  0.940  0.094  1.000
  Li1315  Li1+  0.098  0.800  0.013  1.000
  Li1316  Li1+  0.094  0.900  0.149  1.000
  Li1318  Li1+  0.100  0.996  0.113  1.000
  Li1322  Li1+  0.150  0.854  0.171  1.000
  Li1357  Li1+  -0.000  0.896  0.288  1.000
  Li1379  Li1+  0.098  0.800  0.213  1.000
  Li1382  Li1+  0.100  0.996  0.313  1.000
  Li1416  Li1+  0.050  0.950  0.449  1.000
  Li1424  Li1+  0.198  0.898  0.586  1.000
  Li1443  Li1+  0.098  0.800  0.413  1.000
  Li1446  Li1+  0.100  0.996  0.513  1.000
  Li1480  Li1+  0.050  0.950  0.649  1.000
  Li1485  Li1+  -0.000  0.896  0.688  1.000
  Li1507  Li1+  0.098  0.800  0.613  1.000
  Li1539  Li1+  0.004  0.992  0.950  1.000
  Li1549  Li1+  -0.000  0.896  0.888  1.000
  Li1552  Li1+  0.198  0.898  0.986  1.000
  Li1571  Li1+  0.098  0.800  0.813  1.000
  Li1572  Li1+  0.094  0.900  0.949  1.000
  Li1574  Li1+  0.100  0.996  0.913  1.000
  Li1578  Li1+  0.150  0.854  0.971  1.000
  Li1616  Li1+  0.398  0.098  0.186  1.000
  Li1638  Li1+  0.300  0.196  0.113  1.000
  Li1671  Li1+  0.346  0.148  0.247  1.000
  Li1680  Li1+  0.398  0.098  0.386  1.000
  Li1683  Li1+  0.250  0.140  0.294  1.000
  Li1699  Li1+  0.298  -0.000  0.213  1.000
  Li1700  Li1+  0.294  0.100  0.349  1.000
  Li1736  Li1+  0.250  0.150  0.449  1.000
  Li1744  Li1+  0.398  0.098  0.586  1.000
  Li1763  Li1+  0.298  -0.000  0.413  1.000
  Li1766  Li1+  0.300  0.196  0.513  1.000
  Li1800  Li1+  0.250  0.150  0.649  1.000
  Li1808  Li1+  0.398  0.098  0.786  1.000
  Li1827  Li1+  0.298  -0.000  0.613  1.000
  Li1863  Li1+  0.346  0.148  0.847  1.000
  Li1872  Li1+  0.398  0.098  0.986  1.000
  Li1891  Li1+  0.298  -0.000  0.813  1.000
  Li1894  Li1+  0.300  0.196  0.913  1.000
  Li1898  Li1+  0.350  0.054  0.971  1.000
  Li1933  Li1+  0.200  0.296  0.088  1.000
  Li1936  Li1+  0.398  0.298  0.186  1.000
  Li1939  Li1+  0.250  0.340  0.094  1.000
  Li1955  Li1+  0.298  0.200  0.013  1.000
  Li1956  Li1+  0.294  0.300  0.149  1.000
  Li1958  Li1+  0.300  0.396  0.113  1.000
  Li1969  Li1+  0.350  0.352  0.003  1.000
  Li1987  Li1+  0.204  0.392  0.350  1.000
  Li1990  Li1+  0.354  0.244  0.322  1.000
  Li1992  Li1+  0.250  0.350  0.249  1.000
  Li2000  Li1+  0.398  0.298  0.386  1.000
  Li2019  Li1+  0.298  0.200  0.213  1.000
  Li2020  Li1+  0.294  0.300  0.349  1.000
  Li2022  Li1+  0.300  0.396  0.313  1.000
  Li2056  Li1+  0.250  0.350  0.449  1.000
  Li2064  Li1+  0.398  0.298  0.586  1.000
  Li2083  Li1+  0.298  0.200  0.413  1.000
  Li2084  Li1+  0.294  0.300  0.549  1.000
  Li2119  Li1+  0.346  0.348  0.647  1.000
  Li2125  Li1+  0.200  0.296  0.688  1.000
  Li2128  Li1+  0.398  0.298  0.786  1.000
  Li2183  Li1+  0.346  0.348  0.847  1.000
  Li2192  Li1+  0.398  0.298  0.986  1.000
  Li2214  Li1+  0.300  0.396  0.913  1.000
  Li2248  Li1+  0.250  0.550  0.049  1.000
  Li2253  Li1+  0.200  0.496  0.088  1.000
  Li2256  Li1+  0.398  0.498  0.186  1.000
  Li2275  Li1+  0.298  0.400  0.013  1.000
  Li2296  Li1+  0.348  0.450  0.026  1.000
  Li2317  Li1+  0.200  0.496  0.288  1.000
  Li2339  Li1+  0.298  0.400  0.213  1.000
  Li2342  Li1+  0.300  0.596  0.313  1.000
  Li2360  Li1+  0.348  0.450  0.226  1.000
  Li2371  Li1+  0.204  0.592  0.550  1.000
  Li2381  Li1+  0.200  0.496  0.488  1.000
  Li2384  Li1+  0.398  0.498  0.586  1.000
  Li2403  Li1+  0.298  0.400  0.413  1.000
  Li2406  Li1+  0.300  0.596  0.513  1.000
  Li2435  Li1+  0.204  0.592  0.750  1.000
  Li2438  Li1+  0.354  0.444  0.722  1.000
  Li2440  Li1+  0.250  0.550  0.649  1.000
  Li2448  Li1+  0.398  0.498  0.786  1.000
  Li2468  Li1+  0.294  0.500  0.749  1.000
  Li2470  Li1+  0.300  0.596  0.713  1.000
  Li2474  Li1+  0.350  0.454  0.771  1.000
  Li2503  Li1+  0.346  0.548  0.847  1.000
  Li2509  Li1+  0.200  0.496  0.888  1.000
  Li2512  Li1+  0.398  0.498  0.986  1.000
  Li2532  Li1+  0.294  0.500  0.949  1.000
  Li2534  Li1+  0.300  0.596  0.913  1.000
  Li2568  Li1+  0.250  0.750  0.049  1.000
  Li2576  Li1+  0.398  0.698  0.186  1.000
  Li2595  Li1+  0.298  0.600  0.013  1.000
  Li2598  Li1+  0.300  0.796  0.113  1.000
  Li2631  Li1+  0.346  0.748  0.247  1.000
  Li2632  Li1+  0.250  0.750  0.249  1.000
  Li2659  Li1+  0.298  0.600  0.213  1.000
  Li2662  Li1+  0.300  0.796  0.313  1.000
  Li2695  Li1+  0.346  0.748  0.447  1.000
  Li2704  Li1+  0.398  0.698  0.586  1.000
  Li2723  Li1+  0.298  0.600  0.413  1.000
  Li2730  Li1+  0.350  0.654  0.571  1.000
  Li2758  Li1+  0.354  0.644  0.722  1.000
  Li2760  Li1+  0.250  0.750  0.649  1.000
  Li2765  Li1+  0.200  0.696  0.688  1.000
  Li2768  Li1+  0.398  0.698  0.786  1.000
  Li2771  Li1+  0.250  0.740  0.694  1.000
  Li2787  Li1+  0.298  0.600  0.613  1.000
  Li2790  Li1+  0.300  0.796  0.713  1.000
  Li2829  Li1+  0.200  0.696  0.888  1.000
  Li2832  Li1+  0.398  0.698  0.986  1.000
  Li2854  Li1+  0.300  0.796  0.913  1.000
  Li2888  Li1+  0.250  0.950  0.049  1.000
  Li2915  Li1+  0.298  0.800  0.013  1.000
  Li2918  Li1+  0.300  0.996  0.113  1.000
  Li2959  Li1+  0.242  0.854  0.383  1.000
  Li2980  Li1+  0.294  0.900  0.349  1.000
  Li3016  Li1+  0.250  0.950  0.449  1.000
  Li3021  Li1+  0.200  0.896  0.488  1.000
  Li3024  Li1+  0.398  0.898  0.586  1.000
  Li3043  Li1+  0.298  0.800  0.413  1.000
  Li3046  Li1+  0.300  0.996  0.513  1.000
  Li3079  Li1+  0.346  0.948  0.647  1.000
  Li3080  Li1+  0.250  0.950  0.649  1.000
  Li3088  Li1+  0.398  0.898  0.786  1.000
  Li3091  Li1+  0.250  0.940  0.694  1.000
  Li3107  Li1+  0.298  0.800  0.613  1.000
  Li3108  Li1+  0.294  0.900  0.749  1.000
  Li3110  Li1+  0.300  0.996  0.713  1.000
  Li3114  Li1+  0.350  0.854  0.771  1.000
  Li3143  Li1+  0.346  0.948  0.847  1.000
  Li3144  Li1+  0.250  0.950  0.849  1.000
  Li3152  Li1+  0.398  0.898  0.986  1.000
  Li3155  Li1+  0.250  0.940  0.894  1.000
  Li3172  Li1+  0.294  0.900  0.949  1.000
  Li3208  Li1+  0.450  0.150  0.049  1.000
  Li3213  Li1+  0.400  0.096  0.088  1.000
  Li3216  Li1+  0.598  0.098  0.186  1.000
  Li3235  Li1+  0.498  -0.000  0.013  1.000
  Li3236  Li1+  0.494  0.100  0.149  1.000
  Li3238  Li1+  0.500  0.196  0.113  1.000
  Li3271  Li1+  0.546  0.148  0.247  1.000
  Li3277  Li1+  0.400  0.096  0.288  1.000
  Li3280  Li1+  0.598  0.098  0.386  1.000
  Li3283  Li1+  0.450  0.140  0.294  1.000
  Li3299  Li1+  0.498  -0.000  0.213  1.000
  Li3300  Li1+  0.494  0.100  0.349  1.000
  Li3302  Li1+  0.500  0.196  0.313  1.000
  Li3336  Li1+  0.450  0.150  0.449  1.000
  Li3344  Li1+  0.598  0.098  0.586  1.000
  Li3347  Li1+  0.450  0.140  0.494  1.000
  Li3356  Li1+  0.450  0.150  0.556  1.000
  Li3363  Li1+  0.498  -0.000  0.413  1.000
  Li3364  Li1+  0.494  0.100  0.549  1.000
  Li3366  Li1+  0.500  0.196  0.513  1.000
  Li3400  Li1+  0.450  0.150  0.649  1.000
  Li3405  Li1+  0.400  0.096  0.688  1.000
  Li3408  Li1+  0.598  0.098  0.786  1.000
  Li3427  Li1+  0.498  -0.000  0.613  1.000
  Li3428  Li1+  0.494  0.100  0.749  1.000
  Li3430  Li1+  0.500  0.196  0.713  1.000
  Li3434  Li1+  0.550  0.054  0.771  1.000
  Li3439  Li1+  0.548  0.142  0.693  1.000
  Li3461  Li1+  0.448  0.042  0.928  1.000
  Li3464  Li1+  0.450  0.150  0.849  1.000
  Li3469  Li1+  0.400  0.096  0.888  1.000
  Li3491  Li1+  0.498  -0.000  0.813  1.000
  Li3492  Li1+  0.494  0.100  0.949  1.000
  Li3523  Li1+  0.404  0.392  0.150  1.000
  Li3533  Li1+  0.400  0.296  0.088  1.000
  Li3536  Li1+  0.598  0.298  0.186  1.000
  Li3555  Li1+  0.498  0.200  0.013  1.000
  Li3558  Li1+  0.500  0.396  0.113  1.000
  Li3591  Li1+  0.546  0.348  0.247  1.000
  Li3592  Li1+  0.450  0.350  0.249  1.000
  Li3600  Li1+  0.598  0.298  0.386  1.000
  Li3622  Li1+  0.500  0.396  0.313  1.000
  Li3661  Li1+  0.400  0.296  0.488  1.000
  Li3664  Li1+  0.598  0.298  0.586  1.000
  Li3683  Li1+  0.498  0.200  0.413  1.000
  Li3684  Li1+  0.494  0.300  0.549  1.000
  Li3686  Li1+  0.500  0.396  0.513  1.000
  Li3720  Li1+  0.450  0.350  0.649  1.000
  Li3725  Li1+  0.400  0.296  0.688  1.000
  Li3728  Li1+  0.598  0.298  0.786  1.000
  Li3731  Li1+  0.450  0.340  0.694  1.000
  Li3739  Li1+  0.448  0.352  0.601  1.000
  Li3747  Li1+  0.498  0.200  0.613  1.000
  Li3748  Li1+  0.494  0.300  0.749  1.000
  Li3783  Li1+  0.546  0.348  0.847  1.000
  Li3792  Li1+  0.598  0.298  0.986  1.000
  Li3811  Li1+  0.498  0.200  0.813  1.000
  Li3812  Li1+  0.494  0.300  0.949  1.000
  Li3814  Li1+  0.500  0.396  0.913  1.000
  Li3856  Li1+  0.598  0.498  0.186  1.000
  Li3878  Li1+  0.500  0.596  0.113  1.000
  Li3917  Li1+  0.400  0.496  0.288  1.000
  Li3920  Li1+  0.598  0.498  0.386  1.000
  Li3940  Li1+  0.494  0.500  0.349  1.000
  Li3942  Li1+  0.500  0.596  0.313  1.000
  Li3946  Li1+  0.550  0.454  0.371  1.000
  Li3975  Li1+  0.546  0.548  0.447  1.000
  Li3984  Li1+  0.598  0.498  0.586  1.000
  Li4003  Li1+  0.498  0.400  0.413  1.000
  Li4004  Li1+  0.494  0.500  0.549  1.000
  Li4006  Li1+  0.500  0.596  0.513  1.000
  Li4010  Li1+  0.550  0.454  0.571  1.000
  Li4040  Li1+  0.450  0.550  0.649  1.000
  Li4048  Li1+  0.598  0.498  0.786  1.000
  Li4067  Li1+  0.498  0.400  0.613  1.000
  Li4070  Li1+  0.500  0.596  0.713  1.000
  Li4101  Li1+  0.448  0.442  0.928  1.000
  Li4104  Li1+  0.450  0.550  0.849  1.000
  Li4134  Li1+  0.500  0.596  0.913  1.000
  Li4168  Li1+  0.450  0.750  0.049  1.000
  Li4176  Li1+  0.598  0.698  0.186  1.000
  Li4179  Li1+  0.450  0.740  0.094  1.000
  Li4198  Li1+  0.500  0.796  0.113  1.000
  Li4232  Li1+  0.450  0.750  0.249  1.000
  Li4240  Li1+  0.598  0.698  0.386  1.000
  Li4259  Li1+  0.498  0.600  0.213  1.000
  Li4262  Li1+  0.500  0.796  0.313  1.000
  Li4296  Li1+  0.450  0.750  0.449  1.000
  Li4300  Li1+  0.417  0.642  0.453  1.000
  Li4301  Li1+  0.400  0.696  0.488  1.000
  Li4304  Li1+  0.598  0.698  0.586  1.000
  Li4307  Li1+  0.450  0.740  0.494  1.000
  Li4323  Li1+  0.498  0.600  0.413  1.000
  Li4326  Li1+  0.500  0.796  0.513  1.000
  Li4365  Li1+  0.400  0.696  0.688  1.000
  Li4368  Li1+  0.598  0.698  0.786  1.000
  Li4379  Li1+  0.448  0.752  0.601  1.000
  Li4380  Li1+  0.450  0.750  0.756  1.000
  Li4387  Li1+  0.498  0.600  0.613  1.000
  Li4429  Li1+  0.400  0.696  0.888  1.000
  Li4432  Li1+  0.598  0.698  0.986  1.000
  Li4435  Li1+  0.450  0.740  0.894  1.000
  Li4451  Li1+  0.498  0.600  0.813  1.000
  Li4452  Li1+  0.494  0.700  0.949  1.000
  Li4454  Li1+  0.500  0.796  0.913  1.000
  Li4458  Li1+  0.550  0.654  0.971  1.000
  Li4487  Li1+  0.546  0.948  0.047  1.000
  Li4496  Li1+  0.598  0.898  0.186  1.000
  Li4515  Li1+  0.498  0.800  0.013  1.000
  Li4518  Li1+  0.500  0.996  0.113  1.000
  Li4551  Li1+  0.546  0.948  0.247  1.000
  Li4552  Li1+  0.450  0.950  0.249  1.000
  Li4560  Li1+  0.598  0.898  0.386  1.000
  Li4579  Li1+  0.498  0.800  0.213  1.000
  Li4582  Li1+  0.500  0.996  0.313  1.000
  Li4586  Li1+  0.550  0.854  0.371  1.000
  Li4621  Li1+  0.400  0.896  0.488  1.000
  Li4624  Li1+  0.598  0.898  0.586  1.000
  Li4643  Li1+  0.498  0.800  0.413  1.000
  Li4646  Li1+  0.500  0.996  0.513  1.000
  Li4677  Li1+  0.448  0.842  0.728  1.000
  Li4679  Li1+  0.546  0.948  0.647  1.000
  Li4680  Li1+  0.450  0.950  0.649  1.000
  Li4688  Li1+  0.598  0.898  0.786  1.000
  Li4707  Li1+  0.498  0.800  0.613  1.000
  Li4710  Li1+  0.500  0.996  0.713  1.000
  Li4744  Li1+  0.450  0.950  0.849  1.000
  Li4774  Li1+  0.500  0.996  0.913  1.000
  Li4835  Li1+  0.698  -0.000  0.013  1.000
  Li4836  Li1+  0.694  0.100  0.149  1.000
  Li4867  Li1+  0.604  0.192  0.350  1.000
  Li4872  Li1+  0.650  0.150  0.249  1.000
  Li4877  Li1+  0.600  0.096  0.288  1.000
  Li4880  Li1+  0.798  0.098  0.386  1.000
  Li4899  Li1+  0.698  -0.000  0.213  1.000
  Li4902  Li1+  0.700  0.196  0.313  1.000
  Li4963  Li1+  0.698  -0.000  0.413  1.000
  Li4966  Li1+  0.700  0.196  0.513  1.000
  Li4995  Li1+  0.604  0.192  0.750  1.000
  Li5000  Li1+  0.650  0.150  0.649  1.000
  Li5008  Li1+  0.798  0.098  0.786  1.000
  Li5020  Li1+  0.650  0.150  0.756  1.000
  Li5027  Li1+  0.698  -0.000  0.613  1.000
  Li5030  Li1+  0.700  0.196  0.713  1.000
  Li5064  Li1+  0.650  0.150  0.849  1.000
  Li5072  Li1+  0.798  0.098  0.986  1.000
  Li5091  Li1+  0.698  -0.000  0.813  1.000
  Li5094  Li1+  0.700  0.196  0.913  1.000
  Li5098  Li1+  0.750  0.054  0.971  1.000
  Li5127  Li1+  0.746  0.348  0.047  1.000
  Li5133  Li1+  0.600  0.296  0.088  1.000
  Li5136  Li1+  0.798  0.298  0.186  1.000
  Li5158  Li1+  0.700  0.396  0.113  1.000
  Li5189  Li1+  0.648  0.242  0.328  1.000
  Li5192  Li1+  0.650  0.350  0.249  1.000
  Li5197  Li1+  0.600  0.296  0.288  1.000
  Li5200  Li1+  0.798  0.298  0.386  1.000
  Li5203  Li1+  0.650  0.340  0.294  1.000
  Li5219  Li1+  0.698  0.200  0.213  1.000
  Li5222  Li1+  0.700  0.396  0.313  1.000
  Li5264  Li1+  0.798  0.298  0.586  1.000
  Li5286  Li1+  0.700  0.396  0.513  1.000
  Li5320  Li1+  0.650  0.350  0.649  1.000
  Li5325  Li1+  0.600  0.296  0.688  1.000
  Li5347  Li1+  0.698  0.200  0.613  1.000
  Li5383  Li1+  0.746  0.348  0.847  1.000
  Li5384  Li1+  0.650  0.350  0.849  1.000
  Li5411  Li1+  0.698  0.200  0.813  1.000
  Li5412  Li1+  0.694  0.300  0.949  1.000
  Li5414  Li1+  0.700  0.396  0.913  1.000
  Li5418  Li1+  0.750  0.254  0.971  1.000
  Li5448  Li1+  0.650  0.550  0.049  1.000
  Li5453  Li1+  0.600  0.496  0.088  1.000
  Li5456  Li1+  0.798  0.498  0.186  1.000
  Li5459  Li1+  0.650  0.540  0.094  1.000
  Li5475  Li1+  0.698  0.400  0.013  1.000
  Li5476  Li1+  0.694  0.500  0.149  1.000
  Li5478  Li1+  0.700  0.596  0.113  1.000
  Li5512  Li1+  0.650  0.550  0.249  1.000
  Li5520  Li1+  0.798  0.498  0.386  1.000
  Li5540  Li1+  0.694  0.500  0.349  1.000
  Li5576  Li1+  0.650  0.550  0.449  1.000
  Li5581  Li1+  0.600  0.496  0.488  1.000
  Li5584  Li1+  0.798  0.498  0.586  1.000
  Li5603  Li1+  0.698  0.400  0.413  1.000
  Li5606  Li1+  0.700  0.596  0.513  1.000
  Li5640  Li1+  0.650  0.550  0.649  1.000
  Li5648  Li1+  0.798  0.498  0.786  1.000
  Li5667  Li1+  0.698  0.400  0.613  1.000
  Li5668  Li1+  0.694  0.500  0.749  1.000
  Li5704  Li1+  0.650  0.550  0.849  1.000
  Li5709  Li1+  0.600  0.496  0.888  1.000
  Li5712  Li1+  0.798  0.498  0.986  1.000
  Li5731  Li1+  0.698  0.400  0.813  1.000
  Li5732  Li1+  0.694  0.500  0.949  1.000
  Li5734  Li1+  0.700  0.596  0.913  1.000
  Li5776  Li1+  0.798  0.698  0.186  1.000
  Li5795  Li1+  0.698  0.600  0.013  1.000
  Li5796  Li1+  0.694  0.700  0.149  1.000
  Li5831  Li1+  0.746  0.748  0.247  1.000
  Li5837  Li1+  0.600  0.696  0.288  1.000
  Li5859  Li1+  0.698  0.600  0.213  1.000
  Li5860  Li1+  0.694  0.700  0.349  1.000
  Li5862  Li1+  0.700  0.796  0.313  1.000
  Li5896  Li1+  0.650  0.750  0.449  1.000
  Li5901  Li1+  0.600  0.696  0.488  1.000
  Li5904  Li1+  0.798  0.698  0.586  1.000
  Li5923  Li1+  0.698  0.600  0.413  1.000
  Li5924  Li1+  0.694  0.700  0.549  1.000
  Li5945  Li1+  0.752  0.644  0.469  1.000
  Li5959  Li1+  0.746  0.748  0.647  1.000
  Li5968  Li1+  0.798  0.698  0.786  1.000
  Li5987  Li1+  0.698  0.600  0.613  1.000
  Li5988  Li1+  0.694  0.700  0.749  1.000
  Li5990  Li1+  0.700  0.796  0.713  1.000
  Li6024  Li1+  0.650  0.750  0.849  1.000
  Li6029  Li1+  0.600  0.696  0.888  1.000
  Li6032  Li1+  0.798  0.698  0.986  1.000
  Li6035  Li1+  0.650  0.740  0.894  1.000
  Li6048  Li1+  0.654  0.652  0.969  1.000
  Li6051  Li1+  0.698  0.600  0.813  1.000
  Li6054  Li1+  0.700  0.796  0.913  1.000
  Li6087  Li1+  0.746  0.948  0.047  1.000
  Li6088  Li1+  0.650  0.950  0.049  1.000
  Li6093  Li1+  0.600  0.896  0.088  1.000
  Li6096  Li1+  0.798  0.898  0.186  1.000
  Li6115  Li1+  0.698  0.800  0.013  1.000
  Li6160  Li1+  0.798  0.898  0.386  1.000
  Li6176  Li1+  0.654  0.852  0.369  1.000
  Li6179  Li1+  0.698  0.800  0.213  1.000
  Li6182  Li1+  0.700  0.996  0.313  1.000
  Li6215  Li1+  0.746  0.948  0.447  1.000
  Li6216  Li1+  0.650  0.950  0.449  1.000
  Li6221  Li1+  0.600  0.896  0.488  1.000
  Li6243  Li1+  0.698  0.800  0.413  1.000
  Li6244  Li1+  0.694  0.900  0.549  1.000
  Li6246  Li1+  0.700  0.996  0.513  1.000
  Li6280  Li1+  0.650  0.950  0.649  1.000
  Li6285  Li1+  0.600  0.896  0.688  1.000
  Li6307  Li1+  0.698  0.800  0.613  1.000
  Li6310  Li1+  0.700  0.996  0.713  1.000
  Li6339  Li1+  0.604  0.992  0.950  1.000
  Li6349  Li1+  0.600  0.896  0.888  1.000
  Li6352  Li1+  0.798  0.898  0.986  1.000
  Li6355  Li1+  0.650  0.940  0.894  1.000
  Li6371  Li1+  0.698  0.800  0.813  1.000
  Li6372  Li1+  0.694  0.900  0.949  1.000
  Li6374  Li1+  0.700  0.996  0.913  1.000
  Li6408  Li1+  0.850  0.150  0.049  1.000
  Li6413  Li1+  0.800  0.096  0.088  1.000
  Li6416  Li1+  0.998  0.098  0.186  1.000
  Li6436  Li1+  0.894  0.100  0.149  1.000
  Li6438  Li1+  0.900  0.196  0.113  1.000
  Li6477  Li1+  0.800  0.096  0.288  1.000
  Li6480  Li1+  0.998  0.098  0.386  1.000
  Li6483  Li1+  0.850  0.140  0.294  1.000
  Li6499  Li1+  0.898  -0.000  0.213  1.000
  Li6500  Li1+  0.894  0.100  0.349  1.000
  Li6502  Li1+  0.900  0.196  0.313  1.000
  Li6536  Li1+  0.850  0.150  0.449  1.000
  Li6541  Li1+  0.800  0.096  0.488  1.000
  Li6547  Li1+  0.850  0.140  0.494  1.000
  Li6563  Li1+  0.898  -0.000  0.413  1.000
  Li6566  Li1+  0.900  0.196  0.513  1.000
  Li6599  Li1+  0.946  0.148  0.647  1.000
  Li6600  Li1+  0.850  0.150  0.649  1.000
  Li6605  Li1+  0.800  0.096  0.688  1.000
  Li6608  Li1+  0.998  0.098  0.786  1.000
  Li6611  Li1+  0.850  0.140  0.694  1.000
  Li6619  Li1+  0.848  0.152  0.601  1.000
  Li6620  Li1+  0.850  0.150  0.756  1.000
  Li6627  Li1+  0.898  -0.000  0.613  1.000
  Li6630  Li1+  0.900  0.196  0.713  1.000
  Li6659  Li1+  0.804  0.192  0.950  1.000
  Li6669  Li1+  0.800  0.096  0.888  1.000
  Li6672  Li1+  0.998  0.098  0.986  1.000
  Li6691  Li1+  0.898  -0.000  0.813  1.000
  Li6692  Li1+  0.894  0.100  0.949  1.000
  Li6694  Li1+  0.900  0.196  0.913  1.000
  Li6727  Li1+  0.946  0.348  0.047  1.000
  Li6755  Li1+  0.898  0.200  0.013  1.000
  Li6756  Li1+  0.894  0.300  0.149  1.000
  Li6762  Li1+  0.950  0.254  0.171  1.000
  Li6792  Li1+  0.850  0.350  0.249  1.000
  Li6800  Li1+  0.998  0.298  0.386  1.000
  Li6803  Li1+  0.850  0.340  0.294  1.000
  Li6819  Li1+  0.898  0.200  0.213  1.000
  Li6822  Li1+  0.900  0.396  0.313  1.000
  Li6856  Li1+  0.850  0.350  0.449  1.000
  Li6883  Li1+  0.898  0.200  0.413  1.000
  Li6884  Li1+  0.894  0.300  0.549  1.000
  Li6886  Li1+  0.900  0.396  0.513  1.000
  Li6920  Li1+  0.850  0.350  0.649  1.000
  Li6925  Li1+  0.800  0.296  0.688  1.000
  Li6928  Li1+  0.998  0.298  0.786  1.000
  Li6947  Li1+  0.898  0.200  0.613  1.000
  Li6950  Li1+  0.900  0.396  0.713  1.000
  Li6979  Li1+  0.804  0.392  0.950  1.000
  Li6984  Li1+  0.850  0.350  0.849  1.000
  Li6989  Li1+  0.800  0.296  0.888  1.000
  Li6992  Li1+  0.998  0.298  0.986  1.000
  Li7014  Li1+  0.900  0.396  0.913  1.000
  Li7047  Li1+  0.946  0.548  0.047  1.000
  Li7048  Li1+  0.850  0.550  0.049  1.000
  Li7056  Li1+  0.998  0.498  0.186  1.000
  Li7075  Li1+  0.898  0.400  0.013  1.000
  Li7078  Li1+  0.900  0.596  0.113  1.000
  Li7111  Li1+  0.946  0.548  0.247  1.000
  Li7112  Li1+  0.850  0.550  0.249  1.000
  Li7120  Li1+  0.998  0.498  0.386  1.000
  Li7139  Li1+  0.898  0.400  0.213  1.000
  Li7142  Li1+  0.900  0.596  0.313  1.000
  Li7173  Li1+  0.848  0.442  0.528  1.000
  Li7176  Li1+  0.850  0.550  0.449  1.000
  Li7184  Li1+  0.998  0.498  0.586  1.000
  Li7203  Li1+  0.898  0.400  0.413  1.000
  Li7204  Li1+  0.894  0.500  0.549  1.000
  Li7235  Li1+  0.804  0.592  0.750  1.000
  Li7239  Li1+  0.946  0.548  0.647  1.000
  Li7251  Li1+  0.850  0.540  0.694  1.000
  Li7267  Li1+  0.898  0.400  0.613  1.000
  Li7268  Li1+  0.894  0.500  0.749  1.000
  Li7270  Li1+  0.900  0.596  0.713  1.000
  Li7274  Li1+  0.950  0.454  0.771  1.000
  Li7303  Li1+  0.946  0.548  0.847  1.000
  Li7304  Li1+  0.850  0.550  0.849  1.000
  Li7309  Li1+  0.800  0.496  0.888  1.000
  Li7315  Li1+  0.850  0.540  0.894  1.000
  Li7331  Li1+  0.898  0.400  0.813  1.000
  Li7334  Li1+  0.900  0.596  0.913  1.000
  Li7367  Li1+  0.946  0.748  0.047  1.000
  Li7368  Li1+  0.850  0.750  0.049  1.000
  Li7373  Li1+  0.800  0.696  0.088  1.000
  Li7376  Li1+  0.998  0.698  0.186  1.000
  Li7379  Li1+  0.850  0.740  0.094  1.000
  Li7387  Li1+  0.848  0.752  0.001  1.000
  Li7398  Li1+  0.900  0.796  0.113  1.000
  Li7427  Li1+  0.804  0.792  0.350  1.000
  Li7432  Li1+  0.850  0.750  0.249  1.000
  Li7440  Li1+  0.998  0.698  0.386  1.000
  Li7459  Li1+  0.898  0.600  0.213  1.000
  Li7495  Li1+  0.946  0.748  0.447  1.000
  Li7496  Li1+  0.850  0.750  0.449  1.000
  Li7504  Li1+  0.998  0.698  0.586  1.000
  Li7523  Li1+  0.898  0.600  0.413  1.000
  Li7526  Li1+  0.900  0.796  0.513  1.000
  Li7560  Li1+  0.850  0.750  0.649  1.000
  Li7565  Li1+  0.800  0.696  0.688  1.000
  Li7568  Li1+  0.998  0.698  0.786  1.000
  Li7571  Li1+  0.850  0.740  0.694  1.000
  Li7587  Li1+  0.898  0.600  0.613  1.000
  Li7590  Li1+  0.900  0.796  0.713  1.000
  Li7624  Li1+  0.850  0.750  0.849  1.000
  Li7632  Li1+  0.998  0.698  0.986  1.000
  Li7635  Li1+  0.850  0.740  0.894  1.000
  Li7651  Li1+  0.898  0.600  0.813  1.000
  Li7654  Li1+  0.900  0.796  0.913  1.000
  Li7683  Li1+  0.804  0.992  0.150  1.000
  Li7687  Li1+  0.946  0.948  0.047  1.000
  Li7693  Li1+  0.800  0.896  0.088  1.000
  Li7696  Li1+  0.998  0.898  0.186  1.000
  Li7716  Li1+  0.894  0.900  0.149  1.000
  Li7718  Li1+  0.900  0.996  0.113  1.000
  Li7722  Li1+  0.950  0.854  0.171  1.000
  Li7751  Li1+  0.946  0.948  0.247  1.000
  Li7752  Li1+  0.850  0.950  0.249  1.000
  Li7757  Li1+  0.800  0.896  0.288  1.000
  Li7782  Li1+  0.900  0.996  0.313  1.000
  Li7811  Li1+  0.804  0.992  0.550  1.000
  Li7815  Li1+  0.946  0.948  0.447  1.000
  Li7816  Li1+  0.850  0.950  0.449  1.000
  Li7824  Li1+  0.998  0.898  0.586  1.000
  Li7843  Li1+  0.898  0.800  0.413  1.000
  Li7846  Li1+  0.900  0.996  0.513  1.000
  Li7879  Li1+  0.946  0.948  0.647  1.000
  Li7880  Li1+  0.850  0.950  0.649  1.000
  Li7885  Li1+  0.800  0.896  0.688  1.000
  Li7907  Li1+  0.898  0.800  0.613  1.000
  Li7910  Li1+  0.900  0.996  0.713  1.000
  Li7943  Li1+  0.946  0.948  0.847  1.000
  Li7952  Li1+  0.998  0.898  0.986  1.000
  Li7971  Li1+  0.898  0.800  0.813  1.000
  P22  P5+  0.199  0.193  0.100  1.000
  P22  P5+  0.199  0.193  0.300  1.000
  P22  P5+  0.199  0.193  0.500  1.000
  P22  P5+  0.199  0.193  0.700  1.000
  P22  P5+  0.199  0.193  0.900  1.000
  P22  P5+  0.199  0.393  0.100  1.000
  P22  P5+  0.199  0.393  0.300  1.000
  P22  P5+  0.199  0.393  0.500  1.000
  P22  P5+  0.199  0.393  0.700  1.000
  P22  P5+  0.199  0.393  0.900  1.000
  P22  P5+  0.199  0.593  0.100  1.000
  P22  P5+  0.199  0.593  0.300  1.000
  P22  P5+  0.199  0.593  0.500  1.000
  P22  P5+  0.199  0.593  0.700  1.000
  P22  P5+  0.199  0.593  0.900  1.000
  P22  P5+  0.199  0.793  0.100  1.000
  P22  P5+  0.199  0.793  0.300  1.000
  P22  P5+  0.199  0.793  0.500  1.000
  P22  P5+  0.199  0.793  0.700  1.000
  P22  P5+  0.199  0.793  0.900  1.000
  P22  P5+  0.199  0.993  0.100  1.000
  P22  P5+  0.199  0.993  0.300  1.000
  P22  P5+  0.199  0.993  0.500  1.000
  P22  P5+  0.199  0.993  0.700  1.000
  P22  P5+  0.199  0.993  0.900  1.000
  P22  P5+  0.399  0.193  0.100  1.000
  P22  P5+  0.399  0.193  0.300  1.000
  P22  P5+  0.399  0.193  0.500  1.000
  P22  P5+  0.399  0.193  0.700  1.000
  P22  P5+  0.399  0.193  0.900  1.000
  P22  P5+  0.399  0.393  0.100  1.000
  P22  P5+  0.399  0.393  0.300  1.000
  P22  P5+  0.399  0.393  0.500  1.000
  P22  P5+  0.399  0.393  0.700  1.000
  P22  P5+  0.399  0.393  0.900  1.000
  P22  P5+  0.399  0.593  0.100  1.000
  P22  P5+  0.399  0.593  0.300  1.000
  P22  P5+  0.399  0.593  0.500  1.000
  P22  P5+  0.399  0.593  0.700  1.000
  P22  P5+  0.399  0.593  0.900  1.000
  P22  P5+  0.399  0.793  0.100  1.000
  P22  P5+  0.399  0.793  0.300  1.000
  P22  P5+  0.399  0.793  0.500  1.000
  P22  P5+  0.399  0.793  0.700  1.000
  P22  P5+  0.399  0.793  0.900  1.000
  P22  P5+  0.399  0.993  0.100  1.000
  P22  P5+  0.399  0.993  0.300  1.000
  P22  P5+  0.399  0.993  0.500  1.000
  P22  P5+  0.399  0.993  0.700  1.000
  P22  P5+  0.399  0.993  0.900  1.000
  P22  P5+  0.599  0.193  0.100  1.000
  P22  P5+  0.599  0.193  0.300  1.000
  P22  P5+  0.599  0.193  0.500  1.000
  P22  P5+  0.599  0.193  0.700  1.000
  P22  P5+  0.599  0.193  0.900  1.000
  P22  P5+  0.599  0.393  0.100  1.000
  P22  P5+  0.599  0.393  0.300  1.000
  P22  P5+  0.599  0.393  0.500  1.000
  P22  P5+  0.599  0.393  0.700  1.000
  P22  P5+  0.599  0.393  0.900  1.000
  P22  P5+  0.599  0.593  0.100  1.000
  P22  P5+  0.599  0.593  0.300  1.000
  P22  P5+  0.599  0.593  0.500  1.000
  P22  P5+  0.599  0.593  0.700  1.000
  P22  P5+  0.599  0.593  0.900  1.000
  P22  P5+  0.599  0.793  0.100  1.000
  P22  P5+  0.599  0.793  0.300  1.000
  P22  P5+  0.599  0.793  0.500  1.000
  P22  P5+  0.599  0.793  0.700  1.000
  P22  P5+  0.599  0.793  0.900  1.000
  P22  P5+  0.599  0.993  0.100  1.000
  P22  P5+  0.599  0.993  0.300  1.000
  P22  P5+  0.599  0.993  0.500  1.000
  P22  P5+  0.599  0.993  0.700  1.000
  P22  P5+  0.599  0.993  0.900  1.000
  P22  P5+  0.799  0.193  0.100  1.000
  P22  P5+  0.799  0.193  0.300  1.000
  P22  P5+  0.799  0.193  0.500  1.000
  P22  P5+  0.799  0.193  0.700  1.000
  P22  P5+  0.799  0.193  0.900  1.000
  P22  P5+  0.799  0.393  0.100  1.000
  P22  P5+  0.799  0.393  0.300  1.000
  P22  P5+  0.799  0.393  0.500  1.000
  P22  P5+  0.799  0.393  0.700  1.000
  P22  P5+  0.799  0.393  0.900  1.000
  P22  P5+  0.799  0.593  0.100  1.000
  P22  P5+  0.799  0.593  0.300  1.000
  P22  P5+  0.799  0.593  0.500  1.000
  P22  P5+  0.799  0.593  0.700  1.000
  P22  P5+  0.799  0.593  0.900  1.000
  P22  P5+  0.799  0.793  0.100  1.000
  P22  P5+  0.799  0.793  0.300  1.000
  P22  P5+  0.799  0.793  0.500  1.000
  P22  P5+  0.799  0.793  0.700  1.000
  P22  P5+  0.799  0.793  0.900  1.000
  P22  P5+  0.799  0.993  0.100  1.000
  P22  P5+  0.799  0.993  0.300  1.000
  P22  P5+  0.799  0.993  0.500  1.000
  P22  P5+  0.799  0.993  0.700  1.000
  P22  P5+  0.799  0.993  0.900  1.000
  P22  P5+  0.999  0.193  0.100  1.000
  P22  P5+  0.999  0.193  0.300  1.000
  P22  P5+  0.999  0.193  0.500  1.000
  P22  P5+  0.999  0.193  0.700  1.000
  P22  P5+  0.999  0.193  0.900  1.000
  P22  P5+  0.999  0.393  0.100  1.000
  P22  P5+  0.999  0.393  0.300  1.000
  P22  P5+  0.999  0.393  0.500  1.000
  P22  P5+  0.999  0.393  0.700  1.000
  P22  P5+  0.999  0.393  0.900  1.000
  P22  P5+  0.999  0.593  0.100  1.000
  P22  P5+  0.999  0.593  0.300  1.000
  P22  P5+  0.999  0.593  0.500  1.000
  P22  P5+  0.999  0.593  0.700  1.000
  P22  P5+  0.999  0.593  0.900  1.000
  P22  P5+  0.999  0.793  0.100  1.000
  P22  P5+  0.999  0.793  0.300  1.000
  P22  P5+  0.999  0.793  0.500  1.000
  P22  P5+  0.999  0.793  0.700  1.000
  P22  P5+  0.999  0.793  0.900  1.000
  P22  P5+  0.999  0.993  0.100  1.000
  P22  P5+  0.999  0.993  0.300  1.000
  P22  P5+  0.999  0.993  0.500  1.000
  P22  P5+  0.999  0.993  0.700  1.000
  P22  P5+  0.999  0.993  0.900  1.000
  P23  P5+  0.098  0.103  0.199  1.000
  P23  P5+  0.098  0.103  0.399  1.000
  P23  P5+  0.098  0.103  0.599  1.000
  P23  P5+  0.098  0.103  0.799  1.000
  P23  P5+  0.098  0.103  0.999  1.000
  P23  P5+  0.098  0.303  0.199  1.000
  P23  P5+  0.098  0.303  0.399  1.000
  P23  P5+  0.098  0.303  0.599  1.000
  P23  P5+  0.098  0.303  0.799  1.000
  P23  P5+  0.098  0.303  0.999  1.000
  P23  P5+  0.098  0.503  0.199  1.000
  P23  P5+  0.098  0.503  0.399  1.000
  P23  P5+  0.098  0.503  0.599  1.000
  P23  P5+  0.098  0.503  0.799  1.000
  P23  P5+  0.098  0.503  0.999  1.000
  P23  P5+  0.098  0.703  0.199  1.000
  P23  P5+  0.098  0.703  0.399  1.000
  P23  P5+  0.098  0.703  0.599  1.000
  P23  P5+  0.098  0.703  0.799  1.000
  P23  P5+  0.098  0.703  0.999  1.000
  P23  P5+  0.098  0.903  0.199  1.000
  P23  P5+  0.098  0.903  0.399  1.000
  P23  P5+  0.098  0.903  0.599  1.000
  P23  P5+  0.098  0.903  0.799  1.000
  P23  P5+  0.098  0.903  0.999  1.000
  P23  P5+  0.298  0.103  0.199  1.000
  P23  P5+  0.298  0.103  0.399  1.000
  P23  P5+  0.298  0.103  0.599  1.000
  P23  P5+  0.298  0.103  0.799  1.000
  P23  P5+  0.298  0.103  0.999  1.000
  P23  P5+  0.298  0.303  0.199  1.000
  P23  P5+  0.298  0.303  0.399  1.000
  P23  P5+  0.298  0.303  0.599  1.000
  P23  P5+  0.298  0.303  0.799  1.000
  P23  P5+  0.298  0.303  0.999  1.000
  P23  P5+  0.298  0.503  0.199  1.000
  P23  P5+  0.298  0.503  0.399  1.000
  P23  P5+  0.298  0.503  0.599  1.000
  P23  P5+  0.298  0.503  0.799  1.000
  P23  P5+  0.298  0.503  0.999  1.000
  P23  P5+  0.298  0.703  0.199  1.000
  P23  P5+  0.298  0.703  0.399  1.000
  P23  P5+  0.298  0.703  0.599  1.000
  P23  P5+  0.298  0.703  0.799  1.000
  P23  P5+  0.298  0.703  0.999  1.000
  P23  P5+  0.298  0.903  0.199  1.000
  P23  P5+  0.298  0.903  0.399  1.000
  P23  P5+  0.298  0.903  0.599  1.000
  P23  P5+  0.298  0.903  0.799  1.000
  P23  P5+  0.298  0.903  0.999  1.000
  P23  P5+  0.498  0.103  0.199  1.000
  P23  P5+  0.498  0.103  0.399  1.000
  P23  P5+  0.498  0.103  0.599  1.000
  P23  P5+  0.498  0.103  0.799  1.000
  P23  P5+  0.498  0.103  0.999  1.000
  P23  P5+  0.498  0.303  0.199  1.000
  P23  P5+  0.498  0.303  0.399  1.000
  P23  P5+  0.498  0.303  0.599  1.000
  P23  P5+  0.498  0.303  0.799  1.000
  P23  P5+  0.498  0.303  0.999  1.000
  P23  P5+  0.498  0.503  0.199  1.000
  P23  P5+  0.498  0.503  0.399  1.000
  P23  P5+  0.498  0.503  0.599  1.000
  P23  P5+  0.498  0.503  0.799  1.000
  P23  P5+  0.498  0.503  0.999  1.000
  P23  P5+  0.498  0.703  0.199  1.000
  P23  P5+  0.498  0.703  0.399  1.000
  P23  P5+  0.498  0.703  0.599  1.000
  P23  P5+  0.498  0.703  0.799  1.000
  P23  P5+  0.498  0.703  0.999  1.000
  P23  P5+  0.498  0.903  0.199  1.000
  P23  P5+  0.498  0.903  0.399  1.000
  P23  P5+  0.498  0.903  0.599  1.000
  P23  P5+  0.498  0.903  0.799  1.000
  P23  P5+  0.498  0.903  0.999  1.000
  P23  P5+  0.698  0.103  0.199  1.000
  P23  P5+  0.698  0.103  0.399  1.000
  P23  P5+  0.698  0.103  0.599  1.000
  P23  P5+  0.698  0.103  0.799  1.000
  P23  P5+  0.698  0.103  0.999  1.000
  P23  P5+  0.698  0.303  0.199  1.000
  P23  P5+  0.698  0.303  0.399  1.000
  P23  P5+  0.698  0.303  0.599  1.000
  P23  P5+  0.698  0.303  0.799  1.000
  P23  P5+  0.698  0.303  0.999  1.000
  P23  P5+  0.698  0.503  0.199  1.000
  P23  P5+  0.698  0.503  0.399  1.000
  P23  P5+  0.698  0.503  0.599  1.000
  P23  P5+  0.698  0.503  0.799  1.000
  P23  P5+  0.698  0.503  0.999  1.000
  P23  P5+  0.698  0.703  0.199  1.000
  P23  P5+  0.698  0.703  0.399  1.000
  P23  P5+  0.698  0.703  0.599  1.000
  P23  P5+  0.698  0.703  0.799  1.000
  P23  P5+  0.698  0.703  0.999  1.000
  P23  P5+  0.698  0.903  0.199  1.000
  P23  P5+  0.698  0.903  0.399  1.000
  P23  P5+  0.698  0.903  0.599  1.000
  P23  P5+  0.698  0.903  0.799  1.000
  P23  P5+  0.698  0.903  0.999  1.000
  P23  P5+  0.898  0.103  0.199  1.000
  P23  P5+  0.898  0.103  0.399  1.000
  P23  P5+  0.898  0.103  0.599  1.000
  P23  P5+  0.898  0.103  0.799  1.000
  P23  P5+  0.898  0.103  0.999  1.000
  P23  P5+  0.898  0.303  0.199  1.000
  P23  P5+  0.898  0.303  0.399  1.000
  P23  P5+  0.898  0.303  0.599  1.000
  P23  P5+  0.898  0.303  0.799  1.000
  P23  P5+  0.898  0.303  0.999  1.000
  P23  P5+  0.898  0.503  0.199  1.000
  P23  P5+  0.898  0.503  0.399  1.000
  P23  P5+  0.898  0.503  0.599  1.000
  P23  P5+  0.898  0.503  0.799  1.000
  P23  P5+  0.898  0.503  0.999  1.000
  P23  P5+  0.898  0.703  0.199  1.000
  P23  P5+  0.898  0.703  0.399  1.000
  P23  P5+  0.898  0.703  0.599  1.000
  P23  P5+  0.898  0.703  0.799  1.000
  P23  P5+  0.898  0.703  0.999  1.000
  P23  P5+  0.898  0.903  0.199  1.000
  P23  P5+  0.898  0.903  0.399  1.000
  P23  P5+  0.898  0.903  0.599  1.000
  P23  P5+  0.898  0.903  0.799  1.000
  P23  P5+  0.898  0.903  0.999  1.000
  P24  P5+  0.002  0.097  0.137  1.000
  P24  P5+  0.002  0.097  0.337  1.000
  P24  P5+  0.002  0.097  0.537  1.000
  P24  P5+  0.002  0.097  0.737  1.000
  P24  P5+  0.002  0.097  0.937  1.000
  P24  P5+  0.002  0.297  0.137  1.000
  P24  P5+  0.002  0.297  0.337  1.000
  P24  P5+  0.002  0.297  0.537  1.000
  P24  P5+  0.002  0.297  0.737  1.000
  P24  P5+  0.002  0.297  0.937  1.000
  P24  P5+  0.002  0.497  0.137  1.000
  P24  P5+  0.002  0.497  0.337  1.000
  P24  P5+  0.002  0.497  0.537  1.000
  P24  P5+  0.002  0.497  0.737  1.000
  P24  P5+  0.002  0.497  0.937  1.000
  P24  P5+  0.002  0.697  0.137  1.000
  P24  P5+  0.002  0.697  0.337  1.000
  P24  P5+  0.002  0.697  0.537  1.000
  P24  P5+  0.002  0.697  0.737  1.000
  P24  P5+  0.002  0.697  0.937  1.000
  P24  P5+  0.002  0.897  0.137  1.000
  P24  P5+  0.002  0.897  0.337  1.000
  P24  P5+  0.002  0.897  0.537  1.000
  P24  P5+  0.002  0.897  0.737  1.000
  P24  P5+  0.002  0.897  0.937  1.000
  P24  P5+  0.202  0.097  0.137  1.000
  P24  P5+  0.202  0.097  0.337  1.000
  P24  P5+  0.202  0.097  0.537  1.000
  P24  P5+  0.202  0.097  0.737  1.000
  P24  P5+  0.202  0.097  0.937  1.000
  P24  P5+  0.202  0.297  0.137  1.000
  P24  P5+  0.202  0.297  0.337  1.000
  P24  P5+  0.202  0.297  0.537  1.000
  P24  P5+  0.202  0.297  0.737  1.000
  P24  P5+  0.202  0.297  0.937  1.000
  P24  P5+  0.202  0.497  0.137  1.000
  P24  P5+  0.202  0.497  0.337  1.000
  P24  P5+  0.202  0.497  0.537  1.000
  P24  P5+  0.202  0.497  0.737  1.000
  P24  P5+  0.202  0.497  0.937  1.000
  P24  P5+  0.202  0.697  0.137  1.000
  P24  P5+  0.202  0.697  0.337  1.000
  P24  P5+  0.202  0.697  0.537  1.000
  P24  P5+  0.202  0.697  0.737  1.000
  P24  P5+  0.202  0.697  0.937  1.000
  P24  P5+  0.202  0.897  0.137  1.000
  P24  P5+  0.202  0.897  0.337  1.000
  P24  P5+  0.202  0.897  0.537  1.000
  P24  P5+  0.202  0.897  0.737  1.000
  P24  P5+  0.202  0.897  0.937  1.000
  P24  P5+  0.402  0.097  0.137  1.000
  P24  P5+  0.402  0.097  0.337  1.000
  P24  P5+  0.402  0.097  0.537  1.000
  P24  P5+  0.402  0.097  0.737  1.000
  P24  P5+  0.402  0.097  0.937  1.000
  P24  P5+  0.402  0.297  0.137  1.000
  P24  P5+  0.402  0.297  0.337  1.000
  P24  P5+  0.402  0.297  0.537  1.000
  P24  P5+  0.402  0.297  0.737  1.000
  P24  P5+  0.402  0.297  0.937  1.000
  P24  P5+  0.402  0.497  0.137  1.000
  P24  P5+  0.402  0.497  0.337  1.000
  P24  P5+  0.402  0.497  0.537  1.000
  P24  P5+  0.402  0.497  0.737  1.000
  P24  P5+  0.402  0.497  0.937  1.000
  P24  P5+  0.402  0.697  0.137  1.000
  P24  P5+  0.402  0.697  0.337  1.000
  P24  P5+  0.402  0.697  0.537  1.000
  P24  P5+  0.402  0.697  0.737  1.000
  P24  P5+  0.402  0.697  0.937  1.000
  P24  P5+  0.402  0.897  0.137  1.000
  P24  P5+  0.402  0.897  0.337  1.000
  P24  P5+  0.402  0.897  0.537  1.000
  P24  P5+  0.402  0.897  0.737  1.000
  P24  P5+  0.402  0.897  0.937  1.000
  P24  P5+  0.602  0.097  0.137  1.000
  P24  P5+  0.602  0.097  0.337  1.000
  P24  P5+  0.602  0.097  0.537  1.000
  P24  P5+  0.602  0.097  0.737  1.000
  P24  P5+  0.602  0.097  0.937  1.000
  P24  P5+  0.602  0.297  0.137  1.000
  P24  P5+  0.602  0.297  0.337  1.000
  P24  P5+  0.602  0.297  0.537  1.000
  P24  P5+  0.602  0.297  0.737  1.000
  P24  P5+  0.602  0.297  0.937  1.000
  P24  P5+  0.602  0.497  0.137  1.000
  P24  P5+  0.602  0.497  0.337  1.000
  P24  P5+  0.602  0.497  0.537  1.000
  P24  P5+  0.602  0.497  0.737  1.000
  P24  P5+  0.602  0.497  0.937  1.000
  P24  P5+  0.602  0.697  0.137  1.000
  P24  P5+  0.602  0.697  0.337  1.000
  P24  P5+  0.602  0.697  0.537  1.000
  P24  P5+  0.602  0.697  0.737  1.000
  P24  P5+  0.602  0.697  0.937  1.000
  P24  P5+  0.602  0.897  0.137  1.000
  P24  P5+  0.602  0.897  0.337  1.000
  P24  P5+  0.602  0.897  0.537  1.000
  P24  P5+  0.602  0.897  0.737  1.000
  P24  P5+  0.602  0.897  0.937  1.000
  P24  P5+  0.802  0.097  0.137  1.000
  P24  P5+  0.802  0.097  0.337  1.000
  P24  P5+  0.802  0.097  0.537  1.000
  P24  P5+  0.802  0.097  0.737  1.000
  P24  P5+  0.802  0.097  0.937  1.000
  P24  P5+  0.802  0.297  0.137  1.000
  P24  P5+  0.802  0.297  0.337  1.000
  P24  P5+  0.802  0.297  0.537  1.000
  P24  P5+  0.802  0.297  0.737  1.000
  P24  P5+  0.802  0.297  0.937  1.000
  P24  P5+  0.802  0.497  0.137  1.000
  P24  P5+  0.802  0.497  0.337  1.000
  P24  P5+  0.802  0.497  0.537  1.000
  P24  P5+  0.802  0.497  0.737  1.000
  P24  P5+  0.802  0.497  0.937  1.000
  P24  P5+  0.802  0.697  0.137  1.000
  P24  P5+  0.802  0.697  0.337  1.000
  P24  P5+  0.802  0.697  0.537  1.000
  P24  P5+  0.802  0.697  0.737  1.000
  P24  P5+  0.802  0.697  0.937  1.000
  P24  P5+  0.802  0.897  0.137  1.000
  P24  P5+  0.802  0.897  0.337  1.000
  P24  P5+  0.802  0.897  0.537  1.000
  P24  P5+  0.802  0.897  0.737  1.000
  P24  P5+  0.802  0.897  0.937  1.000
  P25  P5+  0.898  0.402  0.462  1.000
  P25  P5+  0.898  0.402  0.662  1.000
  P25  P5+  0.898  0.402  0.862  1.000
  P25  P5+  0.898  0.602  0.062  1.000
  P25  P5+  0.898  0.602  0.262  1.000
  P25  P5+  0.898  0.602  0.462  1.000
  P25  P5+  0.898  0.602  0.662  1.000
  P25  P5+  0.898  0.602  0.862  1.000
  P25  P5+  0.898  0.802  0.062  1.000
  P25  P5+  0.898  0.802  0.262  1.000
  P25  P5+  0.898  0.802  0.462  1.000
  P25  P5+  0.898  0.802  0.662  1.000
  P25  P5+  0.898  0.802  0.862  1.000
  P25  P5+  0.298  0.002  0.662  1.000
  P25  P5+  0.298  0.002  0.862  1.000
  P25  P5+  0.298  0.202  0.062  1.000
  P25  P5+  0.298  0.202  0.262  1.000
  P25  P5+  0.298  0.202  0.462  1.000
  P25  P5+  0.298  0.202  0.662  1.000
  P25  P5+  0.298  0.202  0.862  1.000
  P25  P5+  0.298  0.402  0.062  1.000
  P25  P5+  0.298  0.402  0.262  1.000
  P25  P5+  0.298  0.402  0.462  1.000
  P25  P5+  0.298  0.402  0.662  1.000
  P25  P5+  0.298  0.402  0.862  1.000
  P25  P5+  0.298  0.602  0.062  1.000
  P25  P5+  0.298  0.602  0.262  1.000
  P25  P5+  0.298  0.602  0.462  1.000
  P25  P5+  0.298  0.602  0.662  1.000
  P25  P5+  0.298  0.602  0.862  1.000
  P25  P5+  0.298  0.802  0.062  1.000
  P25  P5+  0.298  0.802  0.262  1.000
  P25  P5+  0.298  0.802  0.462  1.000
  P25  P5+  0.298  0.802  0.662  1.000
  P25  P5+  0.298  0.802  0.862  1.000
  P25  P5+  0.498  0.002  0.062  1.000
  P25  P5+  0.498  0.002  0.262  1.000
  P25  P5+  0.498  0.002  0.462  1.000
  P25  P5+  0.498  0.002  0.662  1.000
  P25  P5+  0.498  0.002  0.862  1.000
  P25  P5+  0.498  0.202  0.062  1.000
  P25  P5+  0.498  0.202  0.262  1.000
  P25  P5+  0.498  0.202  0.462  1.000
  P25  P5+  0.498  0.202  0.662  1.000
  P25  P5+  0.498  0.202  0.862  1.000
  P25  P5+  0.498  0.402  0.062  1.000
  P25  P5+  0.498  0.402  0.262  1.000
  P25  P5+  0.498  0.402  0.462  1.000
  P25  P5+  0.498  0.402  0.662  1.000
  P25  P5+  0.498  0.402  0.862  1.000
  P25  P5+  0.498  0.602  0.062  1.000
  P25  P5+  0.498  0.602  0.262  1.000
  P25  P5+  0.498  0.602  0.462  1.000
  P25  P5+  0.498  0.602  0.662  1.000
  P25  P5+  0.498  0.602  0.862  1.000
  P25  P5+  0.498  0.802  0.062  1.000
  P25  P5+  0.498  0.802  0.262  1.000
  P25  P5+  0.498  0.802  0.462  1.000
  P25  P5+  0.498  0.802  0.662  1.000
  P25  P5+  0.498  0.802  0.862  1.000
  P25  P5+  0.698  0.002  0.062  1.000
  P25  P5+  0.698  0.002  0.262  1.000
  P25  P5+  0.698  0.002  0.462  1.000
  P25  P5+  0.698  0.002  0.662  1.000
  P25  P5+  0.698  0.002  0.862  1.000
  P25  P5+  0.698  0.202  0.062  1.000
  P25  P5+  0.698  0.202  0.262  1.000
  P25  P5+  0.698  0.202  0.462  1.000
  P25  P5+  0.698  0.202  0.662  1.000
  P25  P5+  0.698  0.202  0.862  1.000
  P25  P5+  0.698  0.402  0.062  1.000
  P25  P5+  0.698  0.402  0.262  1.000
  P25  P5+  0.698  0.402  0.462  1.000
  P25  P5+  0.698  0.402  0.662  1.000
  P25  P5+  0.698  0.402  0.862  1.000
  P25  P5+  0.698  0.602  0.062  1.000
  P25  P5+  0.698  0.602  0.262  1.000
  P25  P5+  0.698  0.602  0.462  1.000
  P25  P5+  0.698  0.602  0.662  1.000
  P25  P5+  0.698  0.602  0.862  1.000
  P25  P5+  0.698  0.802  0.062  1.000
  P25  P5+  0.698  0.802  0.262  1.000
  P25  P5+  0.698  0.802  0.462  1.000
  P25  P5+  0.698  0.802  0.662  1.000
  P25  P5+  0.698  0.802  0.862  1.000
  P25  P5+  0.898  0.002  0.062  1.000
  P25  P5+  0.898  0.002  0.262  1.000
  P25  P5+  0.898  0.002  0.462  1.000
  P25  P5+  0.898  0.002  0.662  1.000
  P25  P5+  0.898  0.002  0.862  1.000
  P25  P5+  0.898  0.202  0.062  1.000
  P25  P5+  0.898  0.202  0.262  1.000
  P25  P5+  0.898  0.202  0.462  1.000
  P25  P5+  0.898  0.202  0.662  1.000
  P25  P5+  0.898  0.202  0.862  1.000
  P25  P5+  0.898  0.402  0.062  1.000
  P25  P5+  0.898  0.402  0.262  1.000
  P25  P5+  0.098  0.002  0.062  1.000
  P25  P5+  0.098  0.002  0.262  1.000
  P25  P5+  0.098  0.002  0.462  1.000
  P25  P5+  0.098  0.002  0.662  1.000
  P25  P5+  0.098  0.002  0.862  1.000
  P25  P5+  0.098  0.202  0.062  1.000
  P25  P5+  0.098  0.202  0.262  1.000
  P25  P5+  0.098  0.202  0.462  1.000
  P25  P5+  0.098  0.202  0.662  1.000
  P25  P5+  0.098  0.202  0.862  1.000
  P25  P5+  0.098  0.402  0.062  1.000
  P25  P5+  0.098  0.402  0.262  1.000
  P25  P5+  0.098  0.402  0.462  1.000
  P25  P5+  0.098  0.402  0.662  1.000
  P25  P5+  0.098  0.402  0.862  1.000
  P25  P5+  0.098  0.602  0.062  1.000
  P25  P5+  0.098  0.602  0.262  1.000
  P25  P5+  0.098  0.602  0.462  1.000
  P25  P5+  0.098  0.602  0.662  1.000
  P25  P5+  0.098  0.602  0.862  1.000
  P25  P5+  0.098  0.802  0.062  1.000
  P25  P5+  0.098  0.802  0.262  1.000
  P25  P5+  0.098  0.802  0.462  1.000
  P25  P5+  0.098  0.802  0.662  1.000
  P25  P5+  0.098  0.802  0.862  1.000
  P25  P5+  0.298  0.002  0.062  1.000
  P25  P5+  0.298  0.002  0.262  1.000
  P25  P5+  0.298  0.002  0.462  1.000
  S26  S2-  0.198  0.035  0.089  1.000
  S26  S2-  0.198  0.035  0.289  1.000
  S26  S2-  0.198  0.035  0.489  1.000
  S26  S2-  0.198  0.035  0.689  1.000
  S26  S2-  0.198  0.035  0.889  1.000
  S26  S2-  0.198  0.235  0.089  1.000
  S26  S2-  0.198  0.235  0.289  1.000
  S26  S2-  0.198  0.235  0.489  1.000
  S26  S2-  0.198  0.235  0.689  1.000
  S26  S2-  0.198  0.235  0.889  1.000
  S26  S2-  0.198  0.435  0.089  1.000
  S26  S2-  0.198  0.435  0.289  1.000
  S26  S2-  0.198  0.435  0.489  1.000
  S26  S2-  0.198  0.435  0.689  1.000
  S26  S2-  0.198  0.435  0.889  1.000
  S26  S2-  0.198  0.635  0.089  1.000
  S26  S2-  0.198  0.635  0.289  1.000
  S26  S2-  0.198  0.635  0.489  1.000
  S26  S2-  0.198  0.635  0.689  1.000
  S26  S2-  0.198  0.635  0.889  1.000
  S26  S2-  0.198  0.835  0.089  1.000
  S26  S2-  0.198  0.835  0.289  1.000
  S26  S2-  0.198  0.835  0.489  1.000
  S26  S2-  0.198  0.835  0.689  1.000
  S26  S2-  0.198  0.835  0.889  1.000
  S26  S2-  0.398  0.035  0.089  1.000
  S26  S2-  0.398  0.035  0.289  1.000
  S26  S2-  0.398  0.035  0.489  1.000
  S26  S2-  0.398  0.035  0.689  1.000
  S26  S2-  0.398  0.035  0.889  1.000
  S26  S2-  0.398  0.235  0.089  1.000
  S26  S2-  0.398  0.235  0.289  1.000
  S26  S2-  0.398  0.235  0.489  1.000
  S26  S2-  0.398  0.235  0.689  1.000
  S26  S2-  0.398  0.235  0.889  1.000
  S26  S2-  0.398  0.435  0.089  1.000
  S26  S2-  0.398  0.435  0.289  1.000
  S26  S2-  0.398  0.435  0.489  1.000
  S26  S2-  0.398  0.435  0.689  1.000
  S26  S2-  0.398  0.435  0.889  1.000
  S26  S2-  0.398  0.635  0.089  1.000
  S26  S2-  0.398  0.635  0.289  1.000
  S26  S2-  0.398  0.635  0.489  1.000
  S26  S2-  0.398  0.635  0.689  1.000
  S26  S2-  0.398  0.635  0.889  1.000
  S26  S2-  0.398  0.835  0.089  1.000
  S26  S2-  0.398  0.835  0.289  1.000
  S26  S2-  0.398  0.835  0.489  1.000
  S26  S2-  0.398  0.835  0.689  1.000
  S26  S2-  0.398  0.835  0.889  1.000
  S26  S2-  0.598  0.035  0.089  1.000
  S26  S2-  0.598  0.035  0.289  1.000
  S26  S2-  0.598  0.035  0.489  1.000
  S26  S2-  0.598  0.035  0.689  1.000
  S26  S2-  0.598  0.035  0.889  1.000
  S26  S2-  0.598  0.235  0.089  1.000
  S26  S2-  0.598  0.235  0.289  1.000
  S26  S2-  0.598  0.235  0.489  1.000
  S26  S2-  0.598  0.235  0.689  1.000
  S26  S2-  0.598  0.235  0.889  1.000
  S26  S2-  0.598  0.435  0.089  1.000
  S26  S2-  0.598  0.435  0.289  1.000
  S26  S2-  0.598  0.435  0.489  1.000
  S26  S2-  0.598  0.435  0.689  1.000
  S26  S2-  0.598  0.435  0.889  1.000
  S26  S2-  0.598  0.635  0.089  1.000
  S26  S2-  0.598  0.635  0.289  1.000
  S26  S2-  0.598  0.635  0.489  1.000
  S26  S2-  0.598  0.635  0.689  1.000
  S26  S2-  0.598  0.635  0.889  1.000
  S26  S2-  0.598  0.835  0.089  1.000
  S26  S2-  0.598  0.835  0.289  1.000
  S26  S2-  0.598  0.835  0.489  1.000
  S26  S2-  0.598  0.835  0.689  1.000
  S26  S2-  0.598  0.835  0.889  1.000
  S26  S2-  0.798  0.035  0.089  1.000
  S26  S2-  0.798  0.035  0.289  1.000
  S26  S2-  0.798  0.035  0.489  1.000
  S26  S2-  0.798  0.035  0.689  1.000
  S26  S2-  0.798  0.035  0.889  1.000
  S26  S2-  0.798  0.235  0.089  1.000
  S26  S2-  0.798  0.235  0.289  1.000
  S26  S2-  0.798  0.235  0.489  1.000
  S26  S2-  0.798  0.235  0.689  1.000
  S26  S2-  0.798  0.235  0.889  1.000
  S26  S2-  0.798  0.435  0.089  1.000
  S26  S2-  0.798  0.435  0.289  1.000
  S26  S2-  0.798  0.435  0.489  1.000
  S26  S2-  0.798  0.435  0.689  1.000
  S26  S2-  0.798  0.435  0.889  1.000
  S26  S2-  0.798  0.635  0.089  1.000
  S26  S2-  0.798  0.635  0.289  1.000
  S26  S2-  0.798  0.635  0.489  1.000
  S26  S2-  0.798  0.635  0.689  1.000
  S26  S2-  0.798  0.635  0.889  1.000
  S26  S2-  0.798  0.835  0.089  1.000
  S26  S2-  0.798  0.835  0.289  1.000
  S26  S2-  0.798  0.835  0.489  1.000
  S26  S2-  0.798  0.835  0.689  1.000
  S26  S2-  0.798  0.835  0.889  1.000
  S26  S2-  0.998  0.035  0.089  1.000
  S26  S2-  0.998  0.035  0.289  1.000
  S26  S2-  0.998  0.035  0.489  1.000
  S26  S2-  0.998  0.035  0.689  1.000
  S26  S2-  0.998  0.035  0.889  1.000
  S26  S2-  0.998  0.235  0.089  1.000
  S26  S2-  0.998  0.235  0.289  1.000
  S26  S2-  0.998  0.235  0.489  1.000
  S26  S2-  0.998  0.235  0.689  1.000
  S26  S2-  0.998  0.235  0.889  1.000
  S26  S2-  0.998  0.435  0.089  1.000
  S26  S2-  0.998  0.435  0.289  1.000
  S26  S2-  0.998  0.435  0.489  1.000
  S26  S2-  0.998  0.435  0.689  1.000
  S26  S2-  0.998  0.435  0.889  1.000
  S26  S2-  0.998  0.635  0.089  1.000
  S26  S2-  0.998  0.635  0.289  1.000
  S26  S2-  0.998  0.635  0.489  1.000
  S26  S2-  0.998  0.635  0.689  1.000
  S26  S2-  0.998  0.635  0.889  1.000
  S26  S2-  0.998  0.835  0.089  1.000
  S26  S2-  0.998  0.835  0.289  1.000
  S26  S2-  0.998  0.835  0.489  1.000
  S26  S2-  0.998  0.835  0.689  1.000
  S26  S2-  0.998  0.835  0.889  1.000
  S27  S2-  0.001  0.159  0.078  1.000
  S27  S2-  0.001  0.159  0.278  1.000
  S27  S2-  0.001  0.159  0.478  1.000
  S27  S2-  0.001  0.159  0.678  1.000
  S27  S2-  0.001  0.159  0.878  1.000
  S27  S2-  0.001  0.359  0.078  1.000
  S27  S2-  0.001  0.359  0.278  1.000
  S27  S2-  0.001  0.359  0.478  1.000
  S27  S2-  0.001  0.359  0.678  1.000
  S27  S2-  0.001  0.359  0.878  1.000
  S27  S2-  0.001  0.559  0.078  1.000
  S27  S2-  0.001  0.559  0.278  1.000
  S27  S2-  0.001  0.559  0.478  1.000
  S27  S2-  0.001  0.559  0.678  1.000
  S27  S2-  0.001  0.559  0.878  1.000
  S27  S2-  0.001  0.759  0.078  1.000
  S27  S2-  0.001  0.759  0.278  1.000
  S27  S2-  0.001  0.759  0.478  1.000
  S27  S2-  0.001  0.759  0.678  1.000
  S27  S2-  0.001  0.759  0.878  1.000
  S27  S2-  0.001  0.959  0.078  1.000
  S27  S2-  0.001  0.959  0.278  1.000
  S27  S2-  0.001  0.959  0.478  1.000
  S27  S2-  0.001  0.959  0.678  1.000
  S27  S2-  0.001  0.959  0.878  1.000
  S27  S2-  0.201  0.159  0.078  1.000
  S27  S2-  0.201  0.159  0.278  1.000
  S27  S2-  0.201  0.159  0.478  1.000
  S27  S2-  0.201  0.159  0.678  1.000
  S27  S2-  0.201  0.159  0.878  1.000
  S27  S2-  0.201  0.359  0.078  1.000
  S27  S2-  0.201  0.359  0.278  1.000
  S27  S2-  0.201  0.359  0.478  1.000
  S27  S2-  0.201  0.359  0.678  1.000
  S27  S2-  0.201  0.359  0.878  1.000
  S27  S2-  0.201  0.559  0.078  1.000
  S27  S2-  0.201  0.559  0.278  1.000
  S27  S2-  0.201  0.559  0.478  1.000
  S27  S2-  0.201  0.559  0.678  1.000
  S27  S2-  0.201  0.559  0.878  1.000
  S27  S2-  0.201  0.759  0.078  1.000
  S27  S2-  0.201  0.759  0.278  1.000
  S27  S2-  0.201  0.759  0.478  1.000
  S27  S2-  0.201  0.759  0.678  1.000
  S27  S2-  0.201  0.759  0.878  1.000
  S27  S2-  0.201  0.959  0.078  1.000
  S27  S2-  0.201  0.959  0.278  1.000
  S27  S2-  0.201  0.959  0.478  1.000
  S27  S2-  0.201  0.959  0.678  1.000
  S27  S2-  0.201  0.959  0.878  1.000
  S27  S2-  0.401  0.159  0.078  1.000
  S27  S2-  0.401  0.159  0.278  1.000
  S27  S2-  0.401  0.159  0.478  1.000
  S27  S2-  0.401  0.159  0.678  1.000
  S27  S2-  0.401  0.159  0.878  1.000
  S27  S2-  0.401  0.359  0.078  1.000
  S27  S2-  0.401  0.359  0.278  1.000
  S27  S2-  0.401  0.359  0.478  1.000
  S27  S2-  0.401  0.359  0.678  1.000
  S27  S2-  0.401  0.359  0.878  1.000
  S27  S2-  0.401  0.559  0.078  1.000
  S27  S2-  0.401  0.559  0.278  1.000
  S27  S2-  0.401  0.559  0.478  1.000
  S27  S2-  0.401  0.559  0.678  1.000
  S27  S2-  0.401  0.559  0.878  1.000
  S27  S2-  0.401  0.759  0.078  1.000
  S27  S2-  0.401  0.759  0.278  1.000
  S27  S2-  0.401  0.759  0.478  1.000
  S27  S2-  0.401  0.759  0.678  1.000
  S27  S2-  0.401  0.759  0.878  1.000
  S27  S2-  0.401  0.959  0.078  1.000
  S27  S2-  0.401  0.959  0.278  1.000
  S27  S2-  0.401  0.959  0.478  1.000
  S27  S2-  0.401  0.959  0.678  1.000
  S27  S2-  0.401  0.959  0.878  1.000
  S27  S2-  0.601  0.159  0.078  1.000
  S27  S2-  0.601  0.159  0.278  1.000
  S27  S2-  0.601  0.159  0.478  1.000
  S27  S2-  0.601  0.159  0.678  1.000
  S27  S2-  0.601  0.159  0.878  1.000
  S27  S2-  0.601  0.359  0.078  1.000
  S27  S2-  0.601  0.359  0.278  1.000
  S27  S2-  0.601  0.359  0.478  1.000
  S27  S2-  0.601  0.359  0.678  1.000
  S27  S2-  0.601  0.359  0.878  1.000
  S27  S2-  0.601  0.559  0.078  1.000
  S27  S2-  0.601  0.559  0.278  1.000
  S27  S2-  0.601  0.559  0.478  1.000
  S27  S2-  0.601  0.559  0.678  1.000
  S27  S2-  0.601  0.559  0.878  1.000
  S27  S2-  0.601  0.759  0.078  1.000
  S27  S2-  0.601  0.759  0.278  1.000
  S27  S2-  0.601  0.759  0.478  1.000
  S27  S2-  0.601  0.759  0.678  1.000
  S27  S2-  0.601  0.759  0.878  1.000
  S27  S2-  0.601  0.959  0.078  1.000
  S27  S2-  0.601  0.959  0.278  1.000
  S27  S2-  0.601  0.959  0.478  1.000
  S27  S2-  0.601  0.959  0.678  1.000
  S27  S2-  0.601  0.959  0.878  1.000
  S27  S2-  0.801  0.159  0.078  1.000
  S27  S2-  0.801  0.159  0.278  1.000
  S27  S2-  0.801  0.159  0.478  1.000
  S27  S2-  0.801  0.159  0.678  1.000
  S27  S2-  0.801  0.159  0.878  1.000
  S27  S2-  0.801  0.359  0.078  1.000
  S27  S2-  0.801  0.359  0.278  1.000
  S27  S2-  0.801  0.359  0.478  1.000
  S27  S2-  0.801  0.359  0.678  1.000
  S27  S2-  0.801  0.359  0.878  1.000
  S27  S2-  0.801  0.559  0.078  1.000
  S27  S2-  0.801  0.559  0.278  1.000
  S27  S2-  0.801  0.559  0.478  1.000
  S27  S2-  0.801  0.559  0.678  1.000
  S27  S2-  0.801  0.559  0.878  1.000
  S27  S2-  0.801  0.759  0.078  1.000
  S27  S2-  0.801  0.759  0.278  1.000
  S27  S2-  0.801  0.759  0.478  1.000
  S27  S2-  0.801  0.759  0.678  1.000
  S27  S2-  0.801  0.759  0.878  1.000
  S27  S2-  0.801  0.959  0.078  1.000
  S27  S2-  0.801  0.959  0.278  1.000
  S27  S2-  0.801  0.959  0.478  1.000
  S27  S2-  0.801  0.959  0.678  1.000
  S27  S2-  0.801  0.959  0.878  1.000
  S28  S2-  0.059  0.106  0.180  1.000
  S28  S2-  0.059  0.106  0.380  1.000
  S28  S2-  0.059  0.106  0.580  1.000
  S28  S2-  0.059  0.106  0.780  1.000
  S28  S2-  0.059  0.106  0.980  1.000
  S28  S2-  0.059  0.306  0.180  1.000
  S28  S2-  0.059  0.306  0.380  1.000
  S28  S2-  0.059  0.306  0.580  1.000
  S28  S2-  0.059  0.306  0.780  1.000
  S28  S2-  0.059  0.306  0.980  1.000
  S28  S2-  0.059  0.506  0.180  1.000
  S28  S2-  0.059  0.506  0.380  1.000
  S28  S2-  0.059  0.506  0.580  1.000
  S28  S2-  0.059  0.506  0.780  1.000
  S28  S2-  0.059  0.506  0.980  1.000
  S28  S2-  0.059  0.706  0.180  1.000
  S28  S2-  0.059  0.706  0.380  1.000
  S28  S2-  0.059  0.706  0.580  1.000
  S28  S2-  0.059  0.706  0.780  1.000
  S28  S2-  0.059  0.706  0.980  1.000
  S28  S2-  0.059  0.906  0.180  1.000
  S28  S2-  0.059  0.906  0.380  1.000
  S28  S2-  0.059  0.906  0.580  1.000
  S28  S2-  0.059  0.906  0.780  1.000
  S28  S2-  0.059  0.906  0.980  1.000
  S28  S2-  0.259  0.106  0.180  1.000
  S28  S2-  0.259  0.106  0.380  1.000
  S28  S2-  0.259  0.106  0.580  1.000
  S28  S2-  0.259  0.106  0.780  1.000
  S28  S2-  0.259  0.106  0.980  1.000
  S28  S2-  0.259  0.306  0.180  1.000
  S28  S2-  0.259  0.306  0.380  1.000
  S28  S2-  0.259  0.306  0.580  1.000
  S28  S2-  0.259  0.306  0.780  1.000
  S28  S2-  0.259  0.306  0.980  1.000
  S28  S2-  0.259  0.506  0.180  1.000
  S28  S2-  0.259  0.506  0.380  1.000
  S28  S2-  0.259  0.506  0.580  1.000
  S28  S2-  0.259  0.506  0.780  1.000
  S28  S2-  0.259  0.506  0.980  1.000
  S28  S2-  0.259  0.706  0.180  1.000
  S28  S2-  0.259  0.706  0.380  1.000
  S28  S2-  0.259  0.706  0.580  1.000
  S28  S2-  0.259  0.706  0.780  1.000
  S28  S2-  0.259  0.706  0.980  1.000
  S28  S2-  0.259  0.906  0.180  1.000
  S28  S2-  0.259  0.906  0.380  1.000
  S28  S2-  0.259  0.906  0.580  1.000
  S28  S2-  0.259  0.906  0.780  1.000
  S28  S2-  0.259  0.906  0.980  1.000
  S28  S2-  0.459  0.106  0.180  1.000
  S28  S2-  0.459  0.106  0.380  1.000
  S28  S2-  0.459  0.106  0.580  1.000
  S28  S2-  0.459  0.106  0.780  1.000
  S28  S2-  0.459  0.106  0.980  1.000
  S28  S2-  0.459  0.306  0.180  1.000
  S28  S2-  0.459  0.306  0.380  1.000
  S28  S2-  0.459  0.306  0.580  1.000
  S28  S2-  0.459  0.306  0.780  1.000
  S28  S2-  0.459  0.306  0.980  1.000
  S28  S2-  0.459  0.506  0.180  1.000
  S28  S2-  0.459  0.506  0.380  1.000
  S28  S2-  0.459  0.506  0.580  1.000
  S28  S2-  0.459  0.506  0.780  1.000
  S28  S2-  0.459  0.506  0.980  1.000
  S28  S2-  0.459  0.706  0.180  1.000
  S28  S2-  0.459  0.706  0.380  1.000
  S28  S2-  0.459  0.706  0.580  1.000
  S28  S2-  0.459  0.706  0.780  1.000
  S28  S2-  0.459  0.706  0.980  1.000
  S28  S2-  0.459  0.906  0.180  1.000
  S28  S2-  0.459  0.906  0.380  1.000
  S28  S2-  0.459  0.906  0.580  1.000
  S28  S2-  0.459  0.906  0.780  1.000
  S28  S2-  0.459  0.906  0.980  1.000
  S28  S2-  0.659  0.106  0.180  1.000
  S28  S2-  0.659  0.106  0.380  1.000
  S28  S2-  0.659  0.106  0.580  1.000
  S28  S2-  0.659  0.106  0.780  1.000
  S28  S2-  0.659  0.106  0.980  1.000
  S28  S2-  0.659  0.306  0.180  1.000
  S28  S2-  0.659  0.306  0.380  1.000
  S28  S2-  0.659  0.306  0.580  1.000
  S28  S2-  0.659  0.306  0.780  1.000
  S28  S2-  0.659  0.306  0.980  1.000
  S28  S2-  0.659  0.506  0.180  1.000
  S28  S2-  0.659  0.506  0.380  1.000
  S28  S2-  0.659  0.506  0.580  1.000
  S28  S2-  0.659  0.506  0.780  1.000
  S28  S2-  0.659  0.506  0.980  1.000
  S28  S2-  0.659  0.706  0.180  1.000
  S28  S2-  0.659  0.706  0.380  1.000
  S28  S2-  0.659  0.706  0.580  1.000
  S28  S2-  0.659  0.706  0.780  1.000
  S28  S2-  0.659  0.706  0.980  1.000
  S28  S2-  0.659  0.906  0.180  1.000
  S28  S2-  0.659  0.906  0.380  1.000
  S28  S2-  0.659  0.906  0.580  1.000
  S28  S2-  0.659  0.906  0.780  1.000
  S28  S2-  0.659  0.906  0.980  1.000
  S28  S2-  0.859  0.106  0.180  1.000
  S28  S2-  0.859  0.106  0.380  1.000
  S28  S2-  0.859  0.106  0.580  1.000
  S28  S2-  0.859  0.106  0.780  1.000
  S28  S2-  0.859  0.106  0.980  1.000
  S28  S2-  0.859  0.306  0.180  1.000
  S28  S2-  0.859  0.306  0.380  1.000
  S28  S2-  0.859  0.306  0.580  1.000
  S28  S2-  0.859  0.306  0.780  1.000
  S28  S2-  0.859  0.306  0.980  1.000
  S28  S2-  0.859  0.506  0.180  1.000
  S28  S2-  0.859  0.506  0.380  1.000
  S28  S2-  0.859  0.506  0.580  1.000
  S28  S2-  0.859  0.506  0.780  1.000
  S28  S2-  0.859  0.506  0.980  1.000
  S28  S2-  0.859  0.706  0.180  1.000
  S28  S2-  0.859  0.706  0.380  1.000
  S28  S2-  0.859  0.706  0.580  1.000
  S28  S2-  0.859  0.706  0.780  1.000
  S28  S2-  0.859  0.706  0.980  1.000
  S28  S2-  0.859  0.906  0.180  1.000
  S28  S2-  0.859  0.906  0.380  1.000
  S28  S2-  0.859  0.906  0.580  1.000
  S28  S2-  0.859  0.906  0.780  1.000
  S28  S2-  0.859  0.906  0.980  1.000
  S29  S2-  0.137  0.106  0.180  1.000
  S29  S2-  0.137  0.106  0.380  1.000
  S29  S2-  0.137  0.106  0.580  1.000
  S29  S2-  0.137  0.106  0.780  1.000
  S29  S2-  0.137  0.106  0.980  1.000
  S29  S2-  0.137  0.306  0.180  1.000
  S29  S2-  0.137  0.306  0.380  1.000
  S29  S2-  0.137  0.306  0.580  1.000
  S29  S2-  0.137  0.306  0.780  1.000
  S29  S2-  0.137  0.306  0.980  1.000
  S29  S2-  0.137  0.506  0.180  1.000
  S29  S2-  0.137  0.506  0.380  1.000
  S29  S2-  0.137  0.506  0.580  1.000
  S29  S2-  0.137  0.506  0.780  1.000
  S29  S2-  0.137  0.506  0.980  1.000
  S29  S2-  0.137  0.706  0.180  1.000
  S29  S2-  0.137  0.706  0.380  1.000
  S29  S2-  0.137  0.706  0.580  1.000
  S29  S2-  0.137  0.706  0.780  1.000
  S29  S2-  0.137  0.706  0.980  1.000
  S29  S2-  0.137  0.906  0.180  1.000
  S29  S2-  0.137  0.906  0.380  1.000
  S29  S2-  0.137  0.906  0.580  1.000
  S29  S2-  0.137  0.906  0.780  1.000
  S29  S2-  0.137  0.906  0.980  1.000
  S29  S2-  0.337  0.106  0.180  1.000
  S29  S2-  0.337  0.106  0.380  1.000
  S29  S2-  0.337  0.106  0.580  1.000
  S29  S2-  0.337  0.106  0.780  1.000
  S29  S2-  0.337  0.106  0.980  1.000
  S29  S2-  0.337  0.306  0.180  1.000
  S29  S2-  0.337  0.306  0.380  1.000
  S29  S2-  0.337  0.306  0.580  1.000
  S29  S2-  0.337  0.306  0.780  1.000
  S29  S2-  0.337  0.306  0.980  1.000
  S29  S2-  0.337  0.506  0.180  1.000
  S29  S2-  0.337  0.506  0.380  1.000
  S29  S2-  0.337  0.506  0.580  1.000
  S29  S2-  0.337  0.506  0.780  1.000
  S29  S2-  0.337  0.506  0.980  1.000
  S29  S2-  0.337  0.706  0.180  1.000
  S29  S2-  0.337  0.706  0.380  1.000
  S29  S2-  0.337  0.706  0.580  1.000
  S29  S2-  0.337  0.706  0.780  1.000
  S29  S2-  0.337  0.706  0.980  1.000
  S29  S2-  0.337  0.906  0.180  1.000
  S29  S2-  0.337  0.906  0.380  1.000
  S29  S2-  0.337  0.906  0.580  1.000
  S29  S2-  0.337  0.906  0.780  1.000
  S29  S2-  0.337  0.906  0.980  1.000
  S29  S2-  0.537  0.106  0.180  1.000
  S29  S2-  0.537  0.106  0.380  1.000
  S29  S2-  0.537  0.106  0.580  1.000
  S29  S2-  0.537  0.106  0.780  1.000
  S29  S2-  0.537  0.106  0.980  1.000
  S29  S2-  0.537  0.306  0.180  1.000
  S29  S2-  0.537  0.306  0.380  1.000
  S29  S2-  0.537  0.306  0.580  1.000
  S29  S2-  0.537  0.306  0.780  1.000
  S29  S2-  0.537  0.306  0.980  1.000
  S29  S2-  0.537  0.506  0.180  1.000
  S29  S2-  0.537  0.506  0.380  1.000
  S29  S2-  0.537  0.506  0.580  1.000
  S29  S2-  0.537  0.506  0.780  1.000
  S29  S2-  0.537  0.506  0.980  1.000
  S29  S2-  0.537  0.706  0.180  1.000
  S29  S2-  0.537  0.706  0.380  1.000
  S29  S2-  0.537  0.706  0.580  1.000
  S29  S2-  0.537  0.706  0.780  1.000
  S29  S2-  0.537  0.706  0.980  1.000
  S29  S2-  0.537  0.906  0.180  1.000
  S29  S2-  0.537  0.906  0.380  1.000
  S29  S2-  0.537  0.906  0.580  1.000
  S29  S2-  0.537  0.906  0.780  1.000
  S29  S2-  0.537  0.906  0.980  1.000
  S29  S2-  0.737  0.106  0.180  1.000
  S29  S2-  0.737  0.106  0.380  1.000
  S29  S2-  0.737  0.106  0.580  1.000
  S29  S2-  0.737  0.106  0.780  1.000
  S29  S2-  0.737  0.106  0.980  1.000
  S29  S2-  0.737  0.306  0.180  1.000
  S29  S2-  0.737  0.306  0.380  1.000
  S29  S2-  0.737  0.306  0.580  1.000
  S29  S2-  0.737  0.306  0.780  1.000
  S29  S2-  0.737  0.306  0.980  1.000
  S29  S2-  0.737  0.506  0.180  1.000
  S29  S2-  0.737  0.506  0.380  1.000
  S29  S2-  0.737  0.506  0.580  1.000
  S29  S2-  0.737  0.506  0.780  1.000
  S29  S2-  0.737  0.506  0.980  1.000
  S29  S2-  0.737  0.706  0.180  1.000
  S29  S2-  0.737  0.706  0.380  1.000
  S29  S2-  0.737  0.706  0.580  1.000
  S29  S2-  0.737  0.706  0.780  1.000
  S29  S2-  0.737  0.706  0.980  1.000
  S29  S2-  0.737  0.906  0.180  1.000
  S29  S2-  0.737  0.906  0.380  1.000
  S29  S2-  0.737  0.906  0.580  1.000
  S29  S2-  0.737  0.906  0.780  1.000
  S29  S2-  0.737  0.906  0.980  1.000
  S29  S2-  0.937  0.106  0.180  1.000
  S29  S2-  0.937  0.106  0.380  1.000
  S29  S2-  0.937  0.106  0.580  1.000
  S29  S2-  0.937  0.106  0.780  1.000
  S29  S2-  0.937  0.106  0.980  1.000
  S29  S2-  0.937  0.306  0.180  1.000
  S29  S2-  0.937  0.306  0.380  1.000
  S29  S2-  0.937  0.306  0.580  1.000
  S29  S2-  0.937  0.306  0.780  1.000
  S29  S2-  0.937  0.306  0.980  1.000
  S29  S2-  0.937  0.506  0.180  1.000
  S29  S2-  0.937  0.506  0.380  1.000
  S29  S2-  0.937  0.506  0.580  1.000
  S29  S2-  0.937  0.506  0.780  1.000
  S29  S2-  0.937  0.506  0.980  1.000
  S29  S2-  0.937  0.706  0.180  1.000
  S29  S2-  0.937  0.706  0.380  1.000
  S29  S2-  0.937  0.706  0.580  1.000
  S29  S2-  0.937  0.706  0.780  1.000
  S29  S2-  0.937  0.706  0.980  1.000
  S29  S2-  0.937  0.906  0.180  1.000
  S29  S2-  0.937  0.906  0.380  1.000
  S29  S2-  0.937  0.906  0.580  1.000
  S29  S2-  0.937  0.906  0.780  1.000
  S29  S2-  0.937  0.906  0.980  1.000
  S30  S2-  0.099  0.139  0.019  1.000
  S30  S2-  0.099  0.139  0.219  1.000
  S30  S2-  0.099  0.139  0.419  1.000
  S30  S2-  0.099  0.139  0.619  1.000
  S30  S2-  0.099  0.139  0.819  1.000
  S30  S2-  0.099  0.339  0.019  1.000
  S30  S2-  0.099  0.339  0.219  1.000
  S30  S2-  0.099  0.339  0.419  1.000
  S30  S2-  0.099  0.339  0.619  1.000
  S30  S2-  0.099  0.339  0.819  1.000
  S30  S2-  0.099  0.539  0.019  1.000
  S30  S2-  0.099  0.539  0.219  1.000
  S30  S2-  0.099  0.539  0.419  1.000
  S30  S2-  0.099  0.539  0.619  1.000
  S30  S2-  0.099  0.539  0.819  1.000
  S30  S2-  0.099  0.739  0.019  1.000
  S30  S2-  0.099  0.739  0.219  1.000
  S30  S2-  0.099  0.739  0.419  1.000
  S30  S2-  0.099  0.739  0.619  1.000
  S30  S2-  0.099  0.739  0.819  1.000
  S30  S2-  0.099  0.939  0.019  1.000
  S30  S2-  0.099  0.939  0.219  1.000
  S30  S2-  0.099  0.939  0.419  1.000
  S30  S2-  0.099  0.939  0.619  1.000
  S30  S2-  0.099  0.939  0.819  1.000
  S30  S2-  0.299  0.139  0.019  1.000
  S30  S2-  0.299  0.139  0.219  1.000
  S30  S2-  0.299  0.139  0.419  1.000
  S30  S2-  0.299  0.139  0.619  1.000
  S30  S2-  0.299  0.139  0.819  1.000
  S30  S2-  0.299  0.339  0.019  1.000
  S30  S2-  0.299  0.339  0.219  1.000
  S30  S2-  0.299  0.339  0.419  1.000
  S30  S2-  0.299  0.339  0.619  1.000
  S30  S2-  0.299  0.339  0.819  1.000
  S30  S2-  0.299  0.539  0.019  1.000
  S30  S2-  0.299  0.539  0.219  1.000
  S30  S2-  0.299  0.539  0.419  1.000
  S30  S2-  0.299  0.539  0.619  1.000
  S30  S2-  0.299  0.539  0.819  1.000
  S30  S2-  0.299  0.739  0.019  1.000
  S30  S2-  0.299  0.739  0.219  1.000
  S30  S2-  0.299  0.739  0.419  1.000
  S30  S2-  0.299  0.739  0.619  1.000
  S30  S2-  0.299  0.739  0.819  1.000
  S30  S2-  0.299  0.939  0.019  1.000
  S30  S2-  0.299  0.939  0.219  1.000
  S30  S2-  0.299  0.939  0.419  1.000
  S30  S2-  0.299  0.939  0.619  1.000
  S30  S2-  0.299  0.939  0.819  1.000
  S30  S2-  0.499  0.139  0.019  1.000
  S30  S2-  0.499  0.139  0.219  1.000
  S30  S2-  0.499  0.139  0.419  1.000
  S30  S2-  0.499  0.139  0.619  1.000
  S30  S2-  0.499  0.139  0.819  1.000
  S30  S2-  0.499  0.339  0.019  1.000
  S30  S2-  0.499  0.339  0.219  1.000
  S30  S2-  0.499  0.339  0.419  1.000
  S30  S2-  0.499  0.339  0.619  1.000
  S30  S2-  0.499  0.339  0.819  1.000
  S30  S2-  0.499  0.539  0.019  1.000
  S30  S2-  0.499  0.539  0.219  1.000
  S30  S2-  0.499  0.539  0.419  1.000
  S30  S2-  0.499  0.539  0.619  1.000
  S30  S2-  0.499  0.539  0.819  1.000
  S30  S2-  0.499  0.739  0.019  1.000
  S30  S2-  0.499  0.739  0.219  1.000
  S30  S2-  0.499  0.739  0.419  1.000
  S30  S2-  0.499  0.739  0.619  1.000
  S30  S2-  0.499  0.739  0.819  1.000
  S30  S2-  0.499  0.939  0.019  1.000
  S30  S2-  0.499  0.939  0.219  1.000
  S30  S2-  0.499  0.939  0.419  1.000
  S30  S2-  0.499  0.939  0.619  1.000
  S30  S2-  0.499  0.939  0.819  1.000
  S30  S2-  0.699  0.139  0.019  1.000
  S30  S2-  0.699  0.139  0.219  1.000
  S30  S2-  0.699  0.139  0.419  1.000
  S30  S2-  0.699  0.139  0.619  1.000
  S30  S2-  0.699  0.139  0.819  1.000
  S30  S2-  0.699  0.339  0.019  1.000
  S30  S2-  0.699  0.339  0.219  1.000
  S30  S2-  0.699  0.339  0.419  1.000
  S30  S2-  0.699  0.339  0.619  1.000
  S30  S2-  0.699  0.339  0.819  1.000
  S30  S2-  0.699  0.539  0.019  1.000
  S30  S2-  0.699  0.539  0.219  1.000
  S30  S2-  0.699  0.539  0.419  1.000
  S30  S2-  0.699  0.539  0.619  1.000
  S30  S2-  0.699  0.539  0.819  1.000
  S30  S2-  0.699  0.739  0.019  1.000
  S30  S2-  0.699  0.739  0.219  1.000
  S30  S2-  0.699  0.739  0.419  1.000
  S30  S2-  0.699  0.739  0.619  1.000
  S30  S2-  0.699  0.739  0.819  1.000
  S30  S2-  0.699  0.939  0.019  1.000
  S30  S2-  0.699  0.939  0.219  1.000
  S30  S2-  0.699  0.939  0.419  1.000
  S30  S2-  0.699  0.939  0.619  1.000
  S30  S2-  0.699  0.939  0.819  1.000
  S30  S2-  0.899  0.139  0.019  1.000
  S30  S2-  0.899  0.139  0.219  1.000
  S30  S2-  0.899  0.139  0.419  1.000
  S30  S2-  0.899  0.139  0.619  1.000
  S30  S2-  0.899  0.139  0.819  1.000
  S30  S2-  0.899  0.339  0.019  1.000
  S30  S2-  0.899  0.339  0.219  1.000
  S30  S2-  0.899  0.339  0.419  1.000
  S30  S2-  0.899  0.339  0.619  1.000
  S30  S2-  0.899  0.339  0.819  1.000
  S30  S2-  0.899  0.539  0.019  1.000
  S30  S2-  0.899  0.539  0.219  1.000
  S30  S2-  0.899  0.539  0.419  1.000
  S30  S2-  0.899  0.539  0.619  1.000
  S30  S2-  0.899  0.539  0.819  1.000
  S30  S2-  0.899  0.739  0.019  1.000
  S30  S2-  0.899  0.739  0.219  1.000
  S30  S2-  0.899  0.739  0.419  1.000
  S30  S2-  0.899  0.739  0.619  1.000
  S30  S2-  0.899  0.739  0.819  1.000
  S30  S2-  0.899  0.939  0.019  1.000
  S30  S2-  0.899  0.939  0.219  1.000
  S30  S2-  0.899  0.939  0.419  1.000
  S30  S2-  0.899  0.939  0.619  1.000
  S30  S2-  0.899  0.939  0.819  1.000
  S31  S2-  0.097  0.062  0.012  1.000
  S31  S2-  0.097  0.062  0.212  1.000
  S31  S2-  0.097  0.062  0.412  1.000
  S31  S2-  0.097  0.062  0.612  1.000
  S31  S2-  0.097  0.062  0.812  1.000
  S31  S2-  0.097  0.262  0.012  1.000
  S31  S2-  0.097  0.262  0.212  1.000
  S31  S2-  0.097  0.262  0.412  1.000
  S31  S2-  0.097  0.262  0.612  1.000
  S31  S2-  0.097  0.262  0.812  1.000
  S31  S2-  0.097  0.462  0.012  1.000
  S31  S2-  0.097  0.462  0.212  1.000
  S31  S2-  0.097  0.462  0.412  1.000
  S31  S2-  0.097  0.462  0.612  1.000
  S31  S2-  0.097  0.462  0.812  1.000
  S31  S2-  0.097  0.662  0.012  1.000
  S31  S2-  0.097  0.662  0.212  1.000
  S31  S2-  0.097  0.662  0.412  1.000
  S31  S2-  0.097  0.662  0.612  1.000
  S31  S2-  0.097  0.662  0.812  1.000
  S31  S2-  0.097  0.862  0.012  1.000
  S31  S2-  0.097  0.862  0.212  1.000
  S31  S2-  0.097  0.862  0.412  1.000
  S31  S2-  0.097  0.862  0.612  1.000
  S31  S2-  0.097  0.862  0.812  1.000
  S31  S2-  0.297  0.062  0.012  1.000
  S31  S2-  0.297  0.062  0.212  1.000
  S31  S2-  0.297  0.062  0.412  1.000
  S31  S2-  0.297  0.062  0.612  1.000
  S31  S2-  0.297  0.062  0.812  1.000
  S31  S2-  0.297  0.262  0.012  1.000
  S31  S2-  0.297  0.262  0.212  1.000
  S31  S2-  0.297  0.262  0.412  1.000
  S31  S2-  0.297  0.262  0.612  1.000
  S31  S2-  0.297  0.262  0.812  1.000
  S31  S2-  0.297  0.462  0.012  1.000
  S31  S2-  0.297  0.462  0.212  1.000
  S31  S2-  0.297  0.462  0.412  1.000
  S31  S2-  0.297  0.462  0.612  1.000
  S31  S2-  0.297  0.462  0.812  1.000
  S31  S2-  0.297  0.662  0.012  1.000
  S31  S2-  0.297  0.662  0.212  1.000
  S31  S2-  0.297  0.662  0.412  1.000
  S31  S2-  0.297  0.662  0.612  1.000
  S31  S2-  0.297  0.662  0.812  1.000
  S31  S2-  0.297  0.862  0.012  1.000
  S31  S2-  0.297  0.862  0.212  1.000
  S31  S2-  0.297  0.862  0.412  1.000
  S31  S2-  0.297  0.862  0.612  1.000
  S31  S2-  0.297  0.862  0.812  1.000
  S31  S2-  0.497  0.062  0.012  1.000
  S31  S2-  0.497  0.062  0.212  1.000
  S31  S2-  0.497  0.062  0.412  1.000
  S31  S2-  0.497  0.062  0.612  1.000
  S31  S2-  0.497  0.062  0.812  1.000
  S31  S2-  0.497  0.262  0.012  1.000
  S31  S2-  0.497  0.262  0.212  1.000
  S31  S2-  0.497  0.262  0.412  1.000
  S31  S2-  0.497  0.262  0.612  1.000
  S31  S2-  0.497  0.262  0.812  1.000
  S31  S2-  0.497  0.462  0.012  1.000
  S31  S2-  0.497  0.462  0.212  1.000
  S31  S2-  0.497  0.462  0.412  1.000
  S31  S2-  0.497  0.462  0.612  1.000
  S31  S2-  0.497  0.462  0.812  1.000
  S31  S2-  0.497  0.662  0.012  1.000
  S31  S2-  0.497  0.662  0.212  1.000
  S31  S2-  0.497  0.662  0.412  1.000
  S31  S2-  0.497  0.662  0.612  1.000
  S31  S2-  0.497  0.662  0.812  1.000
  S31  S2-  0.497  0.862  0.012  1.000
  S31  S2-  0.497  0.862  0.212  1.000
  S31  S2-  0.497  0.862  0.412  1.000
  S31  S2-  0.497  0.862  0.612  1.000
  S31  S2-  0.497  0.862  0.812  1.000
  S31  S2-  0.697  0.062  0.012  1.000
  S31  S2-  0.697  0.062  0.212  1.000
  S31  S2-  0.697  0.062  0.412  1.000
  S31  S2-  0.697  0.062  0.612  1.000
  S31  S2-  0.697  0.062  0.812  1.000
  S31  S2-  0.697  0.262  0.012  1.000
  S31  S2-  0.697  0.262  0.212  1.000
  S31  S2-  0.697  0.262  0.412  1.000
  S31  S2-  0.697  0.262  0.612  1.000
  S31  S2-  0.697  0.262  0.812  1.000
  S31  S2-  0.697  0.462  0.012  1.000
  S31  S2-  0.697  0.462  0.212  1.000
  S31  S2-  0.697  0.462  0.412  1.000
  S31  S2-  0.697  0.462  0.612  1.000
  S31  S2-  0.697  0.462  0.812  1.000
  S31  S2-  0.697  0.662  0.012  1.000
  S31  S2-  0.697  0.662  0.212  1.000
  S31  S2-  0.697  0.662  0.412  1.000
  S31  S2-  0.697  0.662  0.612  1.000
  S31  S2-  0.697  0.662  0.812  1.000
  S31  S2-  0.697  0.862  0.012  1.000
  S31  S2-  0.697  0.862  0.212  1.000
  S31  S2-  0.697  0.862  0.412  1.000
  S31  S2-  0.697  0.862  0.612  1.000
  S31  S2-  0.697  0.862  0.812  1.000
  S31  S2-  0.897  0.062  0.012  1.000
  S31  S2-  0.897  0.062  0.212  1.000
  S31  S2-  0.897  0.062  0.412  1.000
  S31  S2-  0.897  0.062  0.612  1.000
  S31  S2-  0.897  0.062  0.812  1.000
  S31  S2-  0.897  0.262  0.012  1.000
  S31  S2-  0.897  0.262  0.212  1.000
  S31  S2-  0.897  0.262  0.412  1.000
  S31  S2-  0.897  0.262  0.612  1.000
  S31  S2-  0.897  0.262  0.812  1.000
  S31  S2-  0.897  0.462  0.012  1.000
  S31  S2-  0.897  0.462  0.212  1.000
  S31  S2-  0.897  0.462  0.412  1.000
  S31  S2-  0.897  0.462  0.612  1.000
  S31  S2-  0.897  0.462  0.812  1.000
  S31  S2-  0.897  0.662  0.012  1.000
  S31  S2-  0.897  0.662  0.212  1.000
  S31  S2-  0.897  0.662  0.412  1.000
  S31  S2-  0.897  0.662  0.612  1.000
  S31  S2-  0.897  0.662  0.812  1.000
  S31  S2-  0.897  0.862  0.012  1.000
  S31  S2-  0.897  0.862  0.212  1.000
  S31  S2-  0.897  0.862  0.412  1.000
  S31  S2-  0.897  0.862  0.612  1.000
  S31  S2-  0.897  0.862  0.812  1.000
  S32  S2-  0.039  0.190  0.118  1.000
  S32  S2-  0.039  0.190  0.318  1.000
  S32  S2-  0.039  0.190  0.518  1.000
  S32  S2-  0.039  0.190  0.718  1.000
  S32  S2-  0.039  0.190  0.918  1.000
  S32  S2-  0.039  0.390  0.118  1.000
  S32  S2-  0.039  0.390  0.318  1.000
  S32  S2-  0.039  0.390  0.518  1.000
  S32  S2-  0.039  0.390  0.718  1.000
  S32  S2-  0.039  0.390  0.918  1.000
  S32  S2-  0.039  0.590  0.118  1.000
  S32  S2-  0.039  0.590  0.318  1.000
  S32  S2-  0.039  0.590  0.518  1.000
  S32  S2-  0.039  0.590  0.718  1.000
  S32  S2-  0.039  0.590  0.918  1.000
  S32  S2-  0.039  0.790  0.118  1.000
  S32  S2-  0.039  0.790  0.318  1.000
  S32  S2-  0.039  0.790  0.518  1.000
  S32  S2-  0.039  0.790  0.718  1.000
  S32  S2-  0.039  0.790  0.918  1.000
  S32  S2-  0.039  0.990  0.118  1.000
  S32  S2-  0.039  0.990  0.318  1.000
  S32  S2-  0.039  0.990  0.518  1.000
  S32  S2-  0.039  0.990  0.718  1.000
  S32  S2-  0.039  0.990  0.918  1.000
  S32  S2-  0.239  0.190  0.118  1.000
  S32  S2-  0.239  0.190  0.318  1.000
  S32  S2-  0.239  0.190  0.518  1.000
  S32  S2-  0.239  0.190  0.718  1.000
  S32  S2-  0.239  0.190  0.918  1.000
  S32  S2-  0.239  0.390  0.118  1.000
  S32  S2-  0.239  0.390  0.318  1.000
  S32  S2-  0.239  0.390  0.518  1.000
  S32  S2-  0.239  0.390  0.718  1.000
  S32  S2-  0.239  0.390  0.918  1.000
  S32  S2-  0.239  0.590  0.118  1.000
  S32  S2-  0.239  0.590  0.318  1.000
  S32  S2-  0.239  0.590  0.518  1.000
  S32  S2-  0.239  0.590  0.718  1.000
  S32  S2-  0.239  0.590  0.918  1.000
  S32  S2-  0.239  0.790  0.118  1.000
  S32  S2-  0.239  0.790  0.318  1.000
  S32  S2-  0.239  0.790  0.518  1.000
  S32  S2-  0.239  0.790  0.718  1.000
  S32  S2-  0.239  0.790  0.918  1.000
  S32  S2-  0.239  0.990  0.118  1.000
  S32  S2-  0.239  0.990  0.318  1.000
  S32  S2-  0.239  0.990  0.518  1.000
  S32  S2-  0.239  0.990  0.718  1.000
  S32  S2-  0.239  0.990  0.918  1.000
  S32  S2-  0.439  0.190  0.118  1.000
  S32  S2-  0.439  0.190  0.318  1.000
  S32  S2-  0.439  0.190  0.518  1.000
  S32  S2-  0.439  0.190  0.718  1.000
  S32  S2-  0.439  0.190  0.918  1.000
  S32  S2-  0.439  0.390  0.118  1.000
  S32  S2-  0.439  0.390  0.318  1.000
  S32  S2-  0.439  0.390  0.518  1.000
  S32  S2-  0.439  0.390  0.718  1.000
  S32  S2-  0.439  0.390  0.918  1.000
  S32  S2-  0.439  0.590  0.118  1.000
  S32  S2-  0.439  0.590  0.318  1.000
  S32  S2-  0.439  0.590  0.518  1.000
  S32  S2-  0.439  0.590  0.718  1.000
  S32  S2-  0.439  0.590  0.918  1.000
  S32  S2-  0.439  0.790  0.118  1.000
  S32  S2-  0.439  0.790  0.318  1.000
  S32  S2-  0.439  0.790  0.518  1.000
  S32  S2-  0.439  0.790  0.718  1.000
  S32  S2-  0.439  0.790  0.918  1.000
  S32  S2-  0.439  0.990  0.118  1.000
  S32  S2-  0.439  0.990  0.318  1.000
  S32  S2-  0.439  0.990  0.518  1.000
  S32  S2-  0.439  0.990  0.718  1.000
  S32  S2-  0.439  0.990  0.918  1.000
  S32  S2-  0.639  0.190  0.118  1.000
  S32  S2-  0.639  0.190  0.318  1.000
  S32  S2-  0.639  0.190  0.518  1.000
  S32  S2-  0.639  0.190  0.718  1.000
  S32  S2-  0.639  0.190  0.918  1.000
  S32  S2-  0.639  0.390  0.118  1.000
  S32  S2-  0.639  0.390  0.318  1.000
  S32  S2-  0.639  0.390  0.518  1.000
  S32  S2-  0.639  0.390  0.718  1.000
  S32  S2-  0.639  0.390  0.918  1.000
  S32  S2-  0.639  0.590  0.118  1.000
  S32  S2-  0.639  0.590  0.318  1.000
  S32  S2-  0.639  0.590  0.518  1.000
  S32  S2-  0.639  0.590  0.718  1.000
  S32  S2-  0.639  0.590  0.918  1.000
  S32  S2-  0.639  0.790  0.118  1.000
  S32  S2-  0.639  0.790  0.318  1.000
  S32  S2-  0.639  0.790  0.518  1.000
  S32  S2-  0.639  0.790  0.718  1.000
  S32  S2-  0.639  0.790  0.918  1.000
  S32  S2-  0.639  0.990  0.118  1.000
  S32  S2-  0.639  0.990  0.318  1.000
  S32  S2-  0.639  0.990  0.518  1.000
  S32  S2-  0.639  0.990  0.718  1.000
  S32  S2-  0.639  0.990  0.918  1.000
  S32  S2-  0.839  0.190  0.118  1.000
  S32  S2-  0.839  0.190  0.318  1.000
  S32  S2-  0.839  0.190  0.518  1.000
  S32  S2-  0.839  0.190  0.718  1.000
  S32  S2-  0.839  0.190  0.918  1.000
  S32  S2-  0.839  0.390  0.118  1.000
  S32  S2-  0.839  0.390  0.318  1.000
  S32  S2-  0.839  0.390  0.518  1.000
  S32  S2-  0.839  0.390  0.718  1.000
  S32  S2-  0.839  0.390  0.918  1.000
  S32  S2-  0.839  0.590  0.118  1.000
  S32  S2-  0.839  0.590  0.318  1.000
  S32  S2-  0.839  0.590  0.518  1.000
  S32  S2-  0.839  0.590  0.718  1.000
  S32  S2-  0.839  0.590  0.918  1.000
  S32  S2-  0.839  0.790  0.118  1.000
  S32  S2-  0.839  0.790  0.318  1.000
  S32  S2-  0.839  0.790  0.518  1.000
  S32  S2-  0.839  0.790  0.718  1.000
  S32  S2-  0.839  0.790  0.918  1.000
  S32  S2-  0.839  0.990  0.118  1.000
  S32  S2-  0.839  0.990  0.318  1.000
  S32  S2-  0.839  0.990  0.518  1.000
  S32  S2-  0.839  0.990  0.718  1.000
  S32  S2-  0.839  0.990  0.918  1.000
  S33  S2-  0.160  0.189  0.118  1.000
  S33  S2-  0.160  0.189  0.318  1.000
  S33  S2-  0.160  0.189  0.518  1.000
  S33  S2-  0.160  0.189  0.718  1.000
  S33  S2-  0.160  0.189  0.918  1.000
  S33  S2-  0.160  0.389  0.118  1.000
  S33  S2-  0.160  0.389  0.318  1.000
  S33  S2-  0.160  0.389  0.518  1.000
  S33  S2-  0.160  0.389  0.718  1.000
  S33  S2-  0.160  0.389  0.918  1.000
  S33  S2-  0.160  0.589  0.118  1.000
  S33  S2-  0.160  0.589  0.318  1.000
  S33  S2-  0.160  0.589  0.518  1.000
  S33  S2-  0.160  0.589  0.718  1.000
  S33  S2-  0.160  0.589  0.918  1.000
  S33  S2-  0.160  0.789  0.118  1.000
  S33  S2-  0.160  0.789  0.318  1.000
  S33  S2-  0.160  0.789  0.518  1.000
  S33  S2-  0.160  0.789  0.718  1.000
  S33  S2-  0.160  0.789  0.918  1.000
  S33  S2-  0.160  0.989  0.118  1.000
  S33  S2-  0.160  0.989  0.318  1.000
  S33  S2-  0.160  0.989  0.518  1.000
  S33  S2-  0.160  0.989  0.718  1.000
  S33  S2-  0.160  0.989  0.918  1.000
  S33  S2-  0.360  0.189  0.118  1.000
  S33  S2-  0.360  0.189  0.318  1.000
  S33  S2-  0.360  0.189  0.518  1.000
  S33  S2-  0.360  0.189  0.718  1.000
  S33  S2-  0.360  0.189  0.918  1.000
  S33  S2-  0.360  0.389  0.118  1.000
  S33  S2-  0.360  0.389  0.318  1.000
  S33  S2-  0.360  0.389  0.518  1.000
  S33  S2-  0.360  0.389  0.718  1.000
  S33  S2-  0.360  0.389  0.918  1.000
  S33  S2-  0.360  0.589  0.118  1.000
  S33  S2-  0.360  0.589  0.318  1.000
  S33  S2-  0.360  0.589  0.518  1.000
  S33  S2-  0.360  0.589  0.718  1.000
  S33  S2-  0.360  0.589  0.918  1.000
  S33  S2-  0.360  0.789  0.118  1.000
  S33  S2-  0.360  0.789  0.318  1.000
  S33  S2-  0.360  0.789  0.518  1.000
  S33  S2-  0.360  0.789  0.718  1.000
  S33  S2-  0.360  0.789  0.918  1.000
  S33  S2-  0.360  0.989  0.118  1.000
  S33  S2-  0.360  0.989  0.318  1.000
  S33  S2-  0.360  0.989  0.518  1.000
  S33  S2-  0.360  0.989  0.718  1.000
  S33  S2-  0.360  0.989  0.918  1.000
  S33  S2-  0.560  0.189  0.118  1.000
  S33  S2-  0.560  0.189  0.318  1.000
  S33  S2-  0.560  0.189  0.518  1.000
  S33  S2-  0.560  0.189  0.718  1.000
  S33  S2-  0.560  0.189  0.918  1.000
  S33  S2-  0.560  0.389  0.118  1.000
  S33  S2-  0.560  0.389  0.318  1.000
  S33  S2-  0.560  0.389  0.518  1.000
  S33  S2-  0.560  0.389  0.718  1.000
  S33  S2-  0.560  0.389  0.918  1.000
  S33  S2-  0.560  0.589  0.118  1.000
  S33  S2-  0.560  0.589  0.318  1.000
  S33  S2-  0.560  0.589  0.518  1.000
  S33  S2-  0.560  0.589  0.718  1.000
  S33  S2-  0.560  0.589  0.918  1.000
  S33  S2-  0.560  0.789  0.118  1.000
  S33  S2-  0.560  0.789  0.318  1.000
  S33  S2-  0.560  0.789  0.518  1.000
  S33  S2-  0.560  0.789  0.718  1.000
  S33  S2-  0.560  0.789  0.918  1.000
  S33  S2-  0.560  0.989  0.118  1.000
  S33  S2-  0.560  0.989  0.318  1.000
  S33  S2-  0.560  0.989  0.518  1.000
  S33  S2-  0.560  0.989  0.718  1.000
  S33  S2-  0.560  0.989  0.918  1.000
  S33  S2-  0.760  0.189  0.118  1.000
  S33  S2-  0.760  0.189  0.318  1.000
  S33  S2-  0.760  0.189  0.518  1.000
  S33  S2-  0.760  0.189  0.718  1.000
  S33  S2-  0.760  0.189  0.918  1.000
  S33  S2-  0.760  0.389  0.118  1.000
  S33  S2-  0.760  0.389  0.318  1.000
  S33  S2-  0.760  0.389  0.518  1.000
  S33  S2-  0.760  0.389  0.718  1.000
  S33  S2-  0.760  0.389  0.918  1.000
  S33  S2-  0.760  0.589  0.118  1.000
  S33  S2-  0.760  0.589  0.318  1.000
  S33  S2-  0.760  0.589  0.518  1.000
  S33  S2-  0.760  0.589  0.718  1.000
  S33  S2-  0.760  0.589  0.918  1.000
  S33  S2-  0.760  0.789  0.118  1.000
  S33  S2-  0.760  0.789  0.318  1.000
  S33  S2-  0.760  0.789  0.518  1.000
  S33  S2-  0.760  0.789  0.718  1.000
  S33  S2-  0.760  0.789  0.918  1.000
  S33  S2-  0.760  0.989  0.118  1.000
  S33  S2-  0.760  0.989  0.318  1.000
  S33  S2-  0.760  0.989  0.518  1.000
  S33  S2-  0.760  0.989  0.718  1.000
  S33  S2-  0.760  0.989  0.918  1.000
  S33  S2-  0.960  0.189  0.118  1.000
  S33  S2-  0.960  0.189  0.318  1.000
  S33  S2-  0.960  0.189  0.518  1.000
  S33  S2-  0.960  0.189  0.718  1.000
  S33  S2-  0.960  0.189  0.918  1.000
  S33  S2-  0.960  0.389  0.118  1.000
  S33  S2-  0.960  0.389  0.318  1.000
  S33  S2-  0.960  0.389  0.518  1.000
  S33  S2-  0.960  0.389  0.718  1.000
  S33  S2-  0.960  0.389  0.918  1.000
  S33  S2-  0.960  0.589  0.118  1.000
  S33  S2-  0.960  0.589  0.318  1.000
  S33  S2-  0.960  0.589  0.518  1.000
  S33  S2-  0.960  0.589  0.718  1.000
  S33  S2-  0.960  0.589  0.918  1.000
  S33  S2-  0.960  0.789  0.118  1.000
  S33  S2-  0.960  0.789  0.318  1.000
  S33  S2-  0.960  0.789  0.518  1.000
  S33  S2-  0.960  0.789  0.718  1.000
  S33  S2-  0.960  0.789  0.918  1.000
  S33  S2-  0.960  0.989  0.118  1.000
  S33  S2-  0.960  0.989  0.318  1.000
  S33  S2-  0.960  0.989  0.518  1.000
  S33  S2-  0.960  0.989  0.718  1.000
  S33  S2-  0.960  0.989  0.918  1.000
  S34  S2-  0.001  0.059  0.013  1.000
  S34  S2-  0.001  0.059  0.213  1.000
  S34  S2-  0.001  0.059  0.413  1.000
  S34  S2-  0.001  0.059  0.613  1.000
  S34  S2-  0.001  0.059  0.813  1.000
  S34  S2-  0.001  0.259  0.013  1.000
  S34  S2-  0.001  0.259  0.213  1.000
  S34  S2-  0.001  0.259  0.413  1.000
  S34  S2-  0.001  0.259  0.613  1.000
  S34  S2-  0.001  0.259  0.813  1.000
  S34  S2-  0.001  0.459  0.013  1.000
  S34  S2-  0.001  0.459  0.213  1.000
  S34  S2-  0.001  0.459  0.413  1.000
  S34  S2-  0.001  0.459  0.613  1.000
  S34  S2-  0.001  0.459  0.813  1.000
  S34  S2-  0.001  0.659  0.013  1.000
  S34  S2-  0.001  0.659  0.213  1.000
  S34  S2-  0.001  0.659  0.413  1.000
  S34  S2-  0.001  0.659  0.613  1.000
  S34  S2-  0.001  0.659  0.813  1.000
  S34  S2-  0.001  0.859  0.013  1.000
  S34  S2-  0.001  0.859  0.213  1.000
  S34  S2-  0.001  0.859  0.413  1.000
  S34  S2-  0.001  0.859  0.613  1.000
  S34  S2-  0.001  0.859  0.813  1.000
  S34  S2-  0.201  0.059  0.013  1.000
  S34  S2-  0.201  0.059  0.213  1.000
  S34  S2-  0.201  0.059  0.413  1.000
  S34  S2-  0.201  0.059  0.613  1.000
  S34  S2-  0.201  0.059  0.813  1.000
  S34  S2-  0.201  0.259  0.013  1.000
  S34  S2-  0.201  0.259  0.213  1.000
  S34  S2-  0.201  0.259  0.413  1.000
  S34  S2-  0.201  0.259  0.613  1.000
  S34  S2-  0.201  0.259  0.813  1.000
  S34  S2-  0.201  0.459  0.013  1.000
  S34  S2-  0.201  0.459  0.213  1.000
  S34  S2-  0.201  0.459  0.413  1.000
  S34  S2-  0.201  0.459  0.613  1.000
  S34  S2-  0.201  0.459  0.813  1.000
  S34  S2-  0.201  0.659  0.013  1.000
  S34  S2-  0.201  0.659  0.213  1.000
  S34  S2-  0.201  0.659  0.413  1.000
  S34  S2-  0.201  0.659  0.613  1.000
  S34  S2-  0.201  0.659  0.813  1.000
  S34  S2-  0.201  0.859  0.013  1.000
  S34  S2-  0.201  0.859  0.213  1.000
  S34  S2-  0.201  0.859  0.413  1.000
  S34  S2-  0.201  0.859  0.613  1.000
  S34  S2-  0.201  0.859  0.813  1.000
  S34  S2-  0.401  0.059  0.013  1.000
  S34  S2-  0.401  0.059  0.213  1.000
  S34  S2-  0.401  0.059  0.413  1.000
  S34  S2-  0.401  0.059  0.613  1.000
  S34  S2-  0.401  0.059  0.813  1.000
  S34  S2-  0.401  0.259  0.013  1.000
  S34  S2-  0.401  0.259  0.213  1.000
  S34  S2-  0.401  0.259  0.413  1.000
  S34  S2-  0.401  0.259  0.613  1.000
  S34  S2-  0.401  0.259  0.813  1.000
  S34  S2-  0.401  0.459  0.013  1.000
  S34  S2-  0.401  0.459  0.213  1.000
  S34  S2-  0.401  0.459  0.413  1.000
  S34  S2-  0.401  0.459  0.613  1.000
  S34  S2-  0.401  0.459  0.813  1.000
  S34  S2-  0.401  0.659  0.013  1.000
  S34  S2-  0.401  0.659  0.213  1.000
  S34  S2-  0.401  0.659  0.413  1.000
  S34  S2-  0.401  0.659  0.613  1.000
  S34  S2-  0.401  0.659  0.813  1.000
  S34  S2-  0.401  0.859  0.013  1.000
  S34  S2-  0.401  0.859  0.213  1.000
  S34  S2-  0.401  0.859  0.413  1.000
  S34  S2-  0.401  0.859  0.613  1.000
  S34  S2-  0.401  0.859  0.813  1.000
  S34  S2-  0.601  0.059  0.013  1.000
  S34  S2-  0.601  0.059  0.213  1.000
  S34  S2-  0.601  0.059  0.413  1.000
  S34  S2-  0.601  0.059  0.613  1.000
  S34  S2-  0.601  0.059  0.813  1.000
  S34  S2-  0.601  0.259  0.013  1.000
  S34  S2-  0.601  0.259  0.213  1.000
  S34  S2-  0.601  0.259  0.413  1.000
  S34  S2-  0.601  0.259  0.613  1.000
  S34  S2-  0.601  0.259  0.813  1.000
  S34  S2-  0.601  0.459  0.013  1.000
  S34  S2-  0.601  0.459  0.213  1.000
  S34  S2-  0.601  0.459  0.413  1.000
  S34  S2-  0.601  0.459  0.613  1.000
  S34  S2-  0.601  0.459  0.813  1.000
  S34  S2-  0.601  0.659  0.013  1.000
  S34  S2-  0.601  0.659  0.213  1.000
  S34  S2-  0.601  0.659  0.413  1.000
  S34  S2-  0.601  0.659  0.613  1.000
  S34  S2-  0.601  0.659  0.813  1.000
  S34  S2-  0.601  0.859  0.013  1.000
  S34  S2-  0.601  0.859  0.213  1.000
  S34  S2-  0.601  0.859  0.413  1.000
  S34  S2-  0.601  0.859  0.613  1.000
  S34  S2-  0.601  0.859  0.813  1.000
  S34  S2-  0.801  0.059  0.013  1.000
  S34  S2-  0.801  0.059  0.213  1.000
  S34  S2-  0.801  0.059  0.413  1.000
  S34  S2-  0.801  0.059  0.613  1.000
  S34  S2-  0.801  0.059  0.813  1.000
  S34  S2-  0.801  0.259  0.013  1.000
  S34  S2-  0.801  0.259  0.213  1.000
  S34  S2-  0.801  0.259  0.413  1.000
  S34  S2-  0.801  0.259  0.613  1.000
  S34  S2-  0.801  0.259  0.813  1.000
  S34  S2-  0.801  0.459  0.013  1.000
  S34  S2-  0.801  0.459  0.213  1.000
  S34  S2-  0.801  0.459  0.413  1.000
  S34  S2-  0.801  0.459  0.613  1.000
  S34  S2-  0.801  0.459  0.813  1.000
  S34  S2-  0.801  0.659  0.013  1.000
  S34  S2-  0.801  0.659  0.213  1.000
  S34  S2-  0.801  0.659  0.413  1.000
  S34  S2-  0.801  0.659  0.613  1.000
  S34  S2-  0.801  0.659  0.813  1.000
  S34  S2-  0.801  0.859  0.013  1.000
  S34  S2-  0.801  0.859  0.213  1.000
  S34  S2-  0.801  0.859  0.413  1.000
  S34  S2-  0.801  0.859  0.613  1.000
  S34  S2-  0.801  0.859  0.813  1.000
  S35  S2-  0.000  0.142  0.021  1.000
  S35  S2-  0.000  0.142  0.221  1.000
  S35  S2-  0.000  0.142  0.421  1.000
  S35  S2-  0.000  0.142  0.621  1.000
  S35  S2-  0.000  0.142  0.821  1.000
  S35  S2-  0.000  0.342  0.021  1.000
  S35  S2-  0.000  0.342  0.221  1.000
  S35  S2-  0.000  0.342  0.421  1.000
  S35  S2-  0.000  0.342  0.621  1.000
  S35  S2-  0.000  0.342  0.821  1.000
  S35  S2-  0.000  0.542  0.021  1.000
  S35  S2-  0.000  0.542  0.221  1.000
  S35  S2-  0.000  0.542  0.421  1.000
  S35  S2-  0.000  0.542  0.621  1.000
  S35  S2-  0.000  0.542  0.821  1.000
  S35  S2-  0.000  0.742  0.021  1.000
  S35  S2-  0.000  0.742  0.221  1.000
  S35  S2-  0.000  0.742  0.421  1.000
  S35  S2-  0.000  0.742  0.621  1.000
  S35  S2-  0.000  0.742  0.821  1.000
  S35  S2-  0.000  0.942  0.021  1.000
  S35  S2-  0.000  0.942  0.221  1.000
  S35  S2-  0.000  0.942  0.421  1.000
  S35  S2-  0.000  0.942  0.621  1.000
  S35  S2-  0.000  0.942  0.821  1.000
  S35  S2-  0.200  0.142  0.021  1.000
  S35  S2-  0.200  0.142  0.221  1.000
  S35  S2-  0.200  0.142  0.421  1.000
  S35  S2-  0.200  0.142  0.621  1.000
  S35  S2-  0.200  0.142  0.821  1.000
  S35  S2-  0.200  0.342  0.021  1.000
  S35  S2-  0.200  0.342  0.221  1.000
  S35  S2-  0.200  0.342  0.421  1.000
  S35  S2-  0.200  0.342  0.621  1.000
  S35  S2-  0.200  0.342  0.821  1.000
  S35  S2-  0.200  0.542  0.021  1.000
  S35  S2-  0.200  0.542  0.221  1.000
  S35  S2-  0.200  0.542  0.421  1.000
  S35  S2-  0.200  0.542  0.621  1.000
  S35  S2-  0.200  0.542  0.821  1.000
  S35  S2-  0.200  0.742  0.021  1.000
  S35  S2-  0.200  0.742  0.221  1.000
  S35  S2-  0.200  0.742  0.421  1.000
  S35  S2-  0.200  0.742  0.621  1.000
  S35  S2-  0.200  0.742  0.821  1.000
  S35  S2-  0.200  0.942  0.021  1.000
  S35  S2-  0.200  0.942  0.221  1.000
  S35  S2-  0.200  0.942  0.421  1.000
  S35  S2-  0.200  0.942  0.621  1.000
  S35  S2-  0.200  0.942  0.821  1.000
  S35  S2-  0.400  0.142  0.021  1.000
  S35  S2-  0.400  0.142  0.221  1.000
  S35  S2-  0.400  0.142  0.421  1.000
  S35  S2-  0.400  0.142  0.621  1.000
  S35  S2-  0.400  0.142  0.821  1.000
  S35  S2-  0.400  0.342  0.021  1.000
  S35  S2-  0.400  0.342  0.221  1.000
  S35  S2-  0.400  0.342  0.421  1.000
  S35  S2-  0.400  0.342  0.621  1.000
  S35  S2-  0.400  0.342  0.821  1.000
  S35  S2-  0.400  0.542  0.021  1.000
  S35  S2-  0.400  0.542  0.221  1.000
  S35  S2-  0.400  0.542  0.421  1.000
  S35  S2-  0.400  0.542  0.621  1.000
  S35  S2-  0.400  0.542  0.821  1.000
  S35  S2-  0.400  0.742  0.021  1.000
  S35  S2-  0.400  0.742  0.221  1.000
  S35  S2-  0.400  0.742  0.421  1.000
  S35  S2-  0.400  0.742  0.621  1.000
  S35  S2-  0.400  0.742  0.821  1.000
  S35  S2-  0.400  0.942  0.021  1.000
  S35  S2-  0.400  0.942  0.221  1.000
  S35  S2-  0.400  0.942  0.421  1.000
  S35  S2-  0.400  0.942  0.621  1.000
  S35  S2-  0.400  0.942  0.821  1.000
  S35  S2-  0.600  0.142  0.021  1.000
  S35  S2-  0.600  0.142  0.221  1.000
  S35  S2-  0.600  0.142  0.421  1.000
  S35  S2-  0.600  0.142  0.621  1.000
  S35  S2-  0.600  0.142  0.821  1.000
  S35  S2-  0.600  0.342  0.021  1.000
  S35  S2-  0.600  0.342  0.221  1.000
  S35  S2-  0.600  0.342  0.421  1.000
  S35  S2-  0.600  0.342  0.621  1.000
  S35  S2-  0.600  0.342  0.821  1.000
  S35  S2-  0.600  0.542  0.021  1.000
  S35  S2-  0.600  0.542  0.221  1.000
  S35  S2-  0.600  0.542  0.421  1.000
  S35  S2-  0.600  0.542  0.621  1.000
  S35  S2-  0.600  0.542  0.821  1.000
  S35  S2-  0.600  0.742  0.021  1.000
  S35  S2-  0.600  0.742  0.221  1.000
  S35  S2-  0.600  0.742  0.421  1.000
  S35  S2-  0.600  0.742  0.621  1.000
  S35  S2-  0.600  0.742  0.821  1.000
  S35  S2-  0.600  0.942  0.021  1.000
  S35  S2-  0.600  0.942  0.221  1.000
  S35  S2-  0.600  0.942  0.421  1.000
  S35  S2-  0.600  0.942  0.621  1.000
  S35  S2-  0.600  0.942  0.821  1.000
  S35  S2-  0.800  0.142  0.021  1.000
  S35  S2-  0.800  0.142  0.221  1.000
  S35  S2-  0.800  0.142  0.421  1.000
  S35  S2-  0.800  0.142  0.621  1.000
  S35  S2-  0.800  0.142  0.821  1.000
  S35  S2-  0.800  0.342  0.021  1.000
  S35  S2-  0.800  0.342  0.221  1.000
  S35  S2-  0.800  0.342  0.421  1.000
  S35  S2-  0.800  0.342  0.621  1.000
  S35  S2-  0.800  0.342  0.821  1.000
  S35  S2-  0.800  0.542  0.021  1.000
  S35  S2-  0.800  0.542  0.221  1.000
  S35  S2-  0.800  0.542  0.421  1.000
  S35  S2-  0.800  0.542  0.621  1.000
  S35  S2-  0.800  0.542  0.821  1.000
  S35  S2-  0.800  0.742  0.021  1.000
  S35  S2-  0.800  0.742  0.221  1.000
  S35  S2-  0.800  0.742  0.421  1.000
  S35  S2-  0.800  0.742  0.621  1.000
  S35  S2-  0.800  0.742  0.821  1.000
  S35  S2-  0.800  0.942  0.021  1.000
  S35  S2-  0.800  0.942  0.221  1.000
  S35  S2-  0.800  0.942  0.421  1.000
  S35  S2-  0.800  0.942  0.621  1.000
  S35  S2-  0.800  0.942  0.821  1.000
  S36  S2-  0.042  0.097  0.120  1.000
  S36  S2-  0.042  0.097  0.320  1.000
  S36  S2-  0.042  0.097  0.520  1.000
  S36  S2-  0.042  0.097  0.720  1.000
  S36  S2-  0.042  0.097  0.920  1.000
  S36  S2-  0.042  0.297  0.120  1.000
  S36  S2-  0.042  0.297  0.320  1.000
  S36  S2-  0.042  0.297  0.520  1.000
  S36  S2-  0.042  0.297  0.720  1.000
  S36  S2-  0.042  0.297  0.920  1.000
  S36  S2-  0.042  0.497  0.120  1.000
  S36  S2-  0.042  0.497  0.320  1.000
  S36  S2-  0.042  0.497  0.520  1.000
  S36  S2-  0.042  0.497  0.720  1.000
  S36  S2-  0.042  0.497  0.920  1.000
  S36  S2-  0.042  0.697  0.120  1.000
  S36  S2-  0.042  0.697  0.320  1.000
  S36  S2-  0.042  0.697  0.520  1.000
  S36  S2-  0.042  0.697  0.720  1.000
  S36  S2-  0.042  0.697  0.920  1.000
  S36  S2-  0.042  0.897  0.120  1.000
  S36  S2-  0.042  0.897  0.320  1.000
  S36  S2-  0.042  0.897  0.520  1.000
  S36  S2-  0.042  0.897  0.720  1.000
  S36  S2-  0.042  0.897  0.920  1.000
  S36  S2-  0.242  0.097  0.120  1.000
  S36  S2-  0.242  0.097  0.320  1.000
  S36  S2-  0.242  0.097  0.520  1.000
  S36  S2-  0.242  0.097  0.720  1.000
  S36  S2-  0.242  0.097  0.920  1.000
  S36  S2-  0.242  0.297  0.120  1.000
  S36  S2-  0.242  0.297  0.320  1.000
  S36  S2-  0.242  0.297  0.520  1.000
  S36  S2-  0.242  0.297  0.720  1.000
  S36  S2-  0.242  0.297  0.920  1.000
  S36  S2-  0.242  0.497  0.120  1.000
  S36  S2-  0.242  0.497  0.320  1.000
  S36  S2-  0.242  0.497  0.520  1.000
  S36  S2-  0.242  0.497  0.720  1.000
  S36  S2-  0.242  0.497  0.920  1.000
  S36  S2-  0.242  0.697  0.120  1.000
  S36  S2-  0.242  0.697  0.320  1.000
  S36  S2-  0.242  0.697  0.520  1.000
  S36  S2-  0.242  0.697  0.720  1.000
  S36  S2-  0.242  0.697  0.920  1.000
  S36  S2-  0.242  0.897  0.120  1.000
  S36  S2-  0.242  0.897  0.320  1.000
  S36  S2-  0.242  0.897  0.520  1.000
  S36  S2-  0.242  0.897  0.720  1.000
  S36  S2-  0.242  0.897  0.920  1.000
  S36  S2-  0.442  0.097  0.120  1.000
  S36  S2-  0.442  0.097  0.320  1.000
  S36  S2-  0.442  0.097  0.520  1.000
  S36  S2-  0.442  0.097  0.720  1.000
  S36  S2-  0.442  0.097  0.920  1.000
  S36  S2-  0.442  0.297  0.120  1.000
  S36  S2-  0.442  0.297  0.320  1.000
  S36  S2-  0.442  0.297  0.520  1.000
  S36  S2-  0.442  0.297  0.720  1.000
  S36  S2-  0.442  0.297  0.920  1.000
  S36  S2-  0.442  0.497  0.120  1.000
  S36  S2-  0.442  0.497  0.320  1.000
  S36  S2-  0.442  0.497  0.520  1.000
  S36  S2-  0.442  0.497  0.720  1.000
  S36  S2-  0.442  0.497  0.920  1.000
  S36  S2-  0.442  0.697  0.120  1.000
  S36  S2-  0.442  0.697  0.320  1.000
  S36  S2-  0.442  0.697  0.520  1.000
  S36  S2-  0.442  0.697  0.720  1.000
  S36  S2-  0.442  0.697  0.920  1.000
  S36  S2-  0.442  0.897  0.120  1.000
  S36  S2-  0.442  0.897  0.320  1.000
  S36  S2-  0.442  0.897  0.520  1.000
  S36  S2-  0.442  0.897  0.720  1.000
  S36  S2-  0.442  0.897  0.920  1.000
  S36  S2-  0.642  0.097  0.120  1.000
  S36  S2-  0.642  0.097  0.320  1.000
  S36  S2-  0.642  0.097  0.520  1.000
  S36  S2-  0.642  0.097  0.720  1.000
  S36  S2-  0.642  0.097  0.920  1.000
  S36  S2-  0.642  0.297  0.120  1.000
  S36  S2-  0.642  0.297  0.320  1.000
  S36  S2-  0.642  0.297  0.520  1.000
  S36  S2-  0.642  0.297  0.720  1.000
  S36  S2-  0.642  0.297  0.920  1.000
  S36  S2-  0.642  0.497  0.120  1.000
  S36  S2-  0.642  0.497  0.320  1.000
  S36  S2-  0.642  0.497  0.520  1.000
  S36  S2-  0.642  0.497  0.720  1.000
  S36  S2-  0.642  0.497  0.920  1.000
  S36  S2-  0.642  0.697  0.120  1.000
  S36  S2-  0.642  0.697  0.320  1.000
  S36  S2-  0.642  0.697  0.520  1.000
  S36  S2-  0.642  0.697  0.720  1.000
  S36  S2-  0.642  0.697  0.920  1.000
  S36  S2-  0.642  0.897  0.120  1.000
  S36  S2-  0.642  0.897  0.320  1.000
  S36  S2-  0.642  0.897  0.520  1.000
  S36  S2-  0.642  0.897  0.720  1.000
  S36  S2-  0.642  0.897  0.920  1.000
  S36  S2-  0.842  0.097  0.120  1.000
  S36  S2-  0.842  0.097  0.320  1.000
  S36  S2-  0.842  0.097  0.520  1.000
  S36  S2-  0.842  0.097  0.720  1.000
  S36  S2-  0.842  0.097  0.920  1.000
  S36  S2-  0.842  0.297  0.120  1.000
  S36  S2-  0.842  0.297  0.320  1.000
  S36  S2-  0.842  0.297  0.520  1.000
  S36  S2-  0.842  0.297  0.720  1.000
  S36  S2-  0.842  0.297  0.920  1.000
  S36  S2-  0.842  0.497  0.120  1.000
  S36  S2-  0.842  0.497  0.320  1.000
  S36  S2-  0.842  0.497  0.520  1.000
  S36  S2-  0.842  0.497  0.720  1.000
  S36  S2-  0.842  0.497  0.920  1.000
  S36  S2-  0.842  0.697  0.120  1.000
  S36  S2-  0.842  0.697  0.320  1.000
  S36  S2-  0.842  0.697  0.520  1.000
  S36  S2-  0.842  0.697  0.720  1.000
  S36  S2-  0.842  0.697  0.920  1.000
  S36  S2-  0.842  0.897  0.120  1.000
  S36  S2-  0.842  0.897  0.320  1.000
  S36  S2-  0.842  0.897  0.520  1.000
  S36  S2-  0.842  0.897  0.720  1.000
  S36  S2-  0.842  0.897  0.920  1.000
  S37  S2-  0.163  0.098  0.118  1.000
  S37  S2-  0.163  0.098  0.318  1.000
  S37  S2-  0.163  0.098  0.518  1.000
  S37  S2-  0.163  0.098  0.718  1.000
  S37  S2-  0.163  0.098  0.918  1.000
  S37  S2-  0.163  0.298  0.118  1.000
  S37  S2-  0.163  0.298  0.318  1.000
  S37  S2-  0.163  0.298  0.518  1.000
  S37  S2-  0.163  0.298  0.718  1.000
  S37  S2-  0.163  0.298  0.918  1.000
  S37  S2-  0.163  0.498  0.118  1.000
  S37  S2-  0.163  0.498  0.318  1.000
  S37  S2-  0.163  0.498  0.518  1.000
  S37  S2-  0.163  0.498  0.718  1.000
  S37  S2-  0.163  0.498  0.918  1.000
  S37  S2-  0.163  0.698  0.118  1.000
  S37  S2-  0.163  0.698  0.318  1.000
  S37  S2-  0.163  0.698  0.518  1.000
  S37  S2-  0.163  0.698  0.718  1.000
  S37  S2-  0.163  0.698  0.918  1.000
  S37  S2-  0.163  0.898  0.118  1.000
  S37  S2-  0.163  0.898  0.318  1.000
  S37  S2-  0.163  0.898  0.518  1.000
  S37  S2-  0.163  0.898  0.718  1.000
  S37  S2-  0.163  0.898  0.918  1.000
  S37  S2-  0.363  0.098  0.118  1.000
  S37  S2-  0.363  0.098  0.318  1.000
  S37  S2-  0.363  0.098  0.518  1.000
  S37  S2-  0.363  0.098  0.718  1.000
  S37  S2-  0.363  0.098  0.918  1.000
  S37  S2-  0.363  0.298  0.118  1.000
  S37  S2-  0.363  0.298  0.318  1.000
  S37  S2-  0.363  0.298  0.518  1.000
  S37  S2-  0.363  0.298  0.718  1.000
  S37  S2-  0.363  0.298  0.918  1.000
  S37  S2-  0.363  0.498  0.118  1.000
  S37  S2-  0.363  0.498  0.318  1.000
  S37  S2-  0.363  0.498  0.518  1.000
  S37  S2-  0.363  0.498  0.718  1.000
  S37  S2-  0.363  0.498  0.918  1.000
  S37  S2-  0.363  0.698  0.118  1.000
  S37  S2-  0.363  0.698  0.318  1.000
  S37  S2-  0.363  0.698  0.518  1.000
  S37  S2-  0.363  0.698  0.718  1.000
  S37  S2-  0.363  0.698  0.918  1.000
  S37  S2-  0.363  0.898  0.118  1.000
  S37  S2-  0.363  0.898  0.318  1.000
  S37  S2-  0.363  0.898  0.518  1.000
  S37  S2-  0.363  0.898  0.718  1.000
  S37  S2-  0.363  0.898  0.918  1.000
  S37  S2-  0.563  0.098  0.118  1.000
  S37  S2-  0.563  0.098  0.318  1.000
  S37  S2-  0.563  0.098  0.518  1.000
  S37  S2-  0.563  0.098  0.718  1.000
  S37  S2-  0.563  0.098  0.918  1.000
  S37  S2-  0.563  0.298  0.118  1.000
  S37  S2-  0.563  0.298  0.318  1.000
  S37  S2-  0.563  0.298  0.518  1.000
  S37  S2-  0.563  0.298  0.718  1.000
  S37  S2-  0.563  0.298  0.918  1.000
  S37  S2-  0.563  0.498  0.118  1.000
  S37  S2-  0.563  0.498  0.318  1.000
  S37  S2-  0.563  0.498  0.518  1.000
  S37  S2-  0.563  0.498  0.718  1.000
  S37  S2-  0.563  0.498  0.918  1.000
  S37  S2-  0.563  0.698  0.118  1.000
  S37  S2-  0.563  0.698  0.318  1.000
  S37  S2-  0.563  0.698  0.518  1.000
  S37  S2-  0.563  0.698  0.718  1.000
  S37  S2-  0.563  0.698  0.918  1.000
  S37  S2-  0.563  0.898  0.118  1.000
  S37  S2-  0.563  0.898  0.318  1.000
  S37  S2-  0.563  0.898  0.518  1.000
  S37  S2-  0.563  0.898  0.718  1.000
  S37  S2-  0.563  0.898  0.918  1.000
  S37  S2-  0.763  0.098  0.118  1.000
  S37  S2-  0.763  0.098  0.318  1.000
  S37  S2-  0.763  0.098  0.518  1.000
  S37  S2-  0.763  0.098  0.718  1.000
  S37  S2-  0.763  0.098  0.918  1.000
  S37  S2-  0.763  0.298  0.118  1.000
  S37  S2-  0.763  0.298  0.318  1.000
  S37  S2-  0.763  0.298  0.518  1.000
  S37  S2-  0.763  0.298  0.718  1.000
  S37  S2-  0.763  0.298  0.918  1.000
  S37  S2-  0.763  0.498  0.118  1.000
  S37  S2-  0.763  0.498  0.318  1.000
  S37  S2-  0.763  0.498  0.518  1.000
  S37  S2-  0.763  0.498  0.718  1.000
  S37  S2-  0.763  0.498  0.918  1.000
  S37  S2-  0.763  0.698  0.118  1.000
  S37  S2-  0.763  0.698  0.318  1.000
  S37  S2-  0.763  0.698  0.518  1.000
  S37  S2-  0.763  0.698  0.718  1.000
  S37  S2-  0.763  0.698  0.918  1.000
  S37  S2-  0.763  0.898  0.118  1.000
  S37  S2-  0.763  0.898  0.318  1.000
  S37  S2-  0.763  0.898  0.518  1.000
  S37  S2-  0.763  0.898  0.718  1.000
  S37  S2-  0.763  0.898  0.918  1.000
  S37  S2-  0.963  0.098  0.118  1.000
  S37  S2-  0.963  0.098  0.318  1.000
  S37  S2-  0.963  0.098  0.518  1.000
  S37  S2-  0.963  0.098  0.718  1.000
  S37  S2-  0.963  0.098  0.918  1.000
  S37  S2-  0.963  0.298  0.118  1.000
  S37  S2-  0.963  0.298  0.318  1.000
  S37  S2-  0.963  0.298  0.518  1.000
  S37  S2-  0.963  0.298  0.718  1.000
  S37  S2-  0.963  0.298  0.918  1.000
  S37  S2-  0.963  0.498  0.118  1.000
  S37  S2-  0.963  0.498  0.318  1.000
  S37  S2-  0.963  0.498  0.518  1.000
  S37  S2-  0.963  0.498  0.718  1.000
  S37  S2-  0.963  0.498  0.918  1.000
  S37  S2-  0.963  0.698  0.118  1.000
  S37  S2-  0.963  0.698  0.318  1.000
  S37  S2-  0.963  0.698  0.518  1.000
  S37  S2-  0.963  0.698  0.718  1.000
  S37  S2-  0.963  0.698  0.918  1.000
  S37  S2-  0.963  0.898  0.118  1.000
  S37  S2-  0.963  0.898  0.318  1.000
  S37  S2-  0.963  0.898  0.518  1.000
  S37  S2-  0.963  0.898  0.718  1.000
  S37  S2-  0.963  0.898  0.918  1.000
  S38  S2-  0.097  0.160  0.075  1.000
  S38  S2-  0.097  0.160  0.275  1.000
  S38  S2-  0.097  0.160  0.475  1.000
  S38  S2-  0.097  0.160  0.675  1.000
  S38  S2-  0.097  0.160  0.875  1.000
  S38  S2-  0.097  0.360  0.075  1.000
  S38  S2-  0.097  0.360  0.275  1.000
  S38  S2-  0.097  0.360  0.475  1.000
  S38  S2-  0.097  0.360  0.675  1.000
  S38  S2-  0.097  0.360  0.875  1.000
  S38  S2-  0.097  0.560  0.075  1.000
  S38  S2-  0.097  0.560  0.275  1.000
  S38  S2-  0.097  0.560  0.475  1.000
  S38  S2-  0.097  0.560  0.675  1.000
  S38  S2-  0.097  0.560  0.875  1.000
  S38  S2-  0.097  0.760  0.075  1.000
  S38  S2-  0.097  0.760  0.275  1.000
  S38  S2-  0.097  0.760  0.475  1.000
  S38  S2-  0.097  0.760  0.675  1.000
  S38  S2-  0.097  0.760  0.875  1.000
  S38  S2-  0.097  0.960  0.075  1.000
  S38  S2-  0.097  0.960  0.275  1.000
  S38  S2-  0.097  0.960  0.475  1.000
  S38  S2-  0.097  0.960  0.675  1.000
  S38  S2-  0.097  0.960  0.875  1.000
  S38  S2-  0.297  0.160  0.075  1.000
  S38  S2-  0.297  0.160  0.275  1.000
  S38  S2-  0.297  0.160  0.475  1.000
  S38  S2-  0.297  0.160  0.675  1.000
  S38  S2-  0.297  0.160  0.875  1.000
  S38  S2-  0.297  0.360  0.075  1.000
  S38  S2-  0.297  0.360  0.275  1.000
  S38  S2-  0.297  0.360  0.475  1.000
  S38  S2-  0.297  0.360  0.675  1.000
  S38  S2-  0.297  0.360  0.875  1.000
  S38  S2-  0.297  0.560  0.075  1.000
  S38  S2-  0.297  0.560  0.275  1.000
  S38  S2-  0.297  0.560  0.475  1.000
  S38  S2-  0.297  0.560  0.675  1.000
  S38  S2-  0.297  0.560  0.875  1.000
  S38  S2-  0.297  0.760  0.075  1.000
  S38  S2-  0.297  0.760  0.275  1.000
  S38  S2-  0.297  0.760  0.475  1.000
  S38  S2-  0.297  0.760  0.675  1.000
  S38  S2-  0.297  0.760  0.875  1.000
  S38  S2-  0.297  0.960  0.075  1.000
  S38  S2-  0.297  0.960  0.275  1.000
  S38  S2-  0.297  0.960  0.475  1.000
  S38  S2-  0.297  0.960  0.675  1.000
  S38  S2-  0.297  0.960  0.875  1.000
  S38  S2-  0.497  0.160  0.075  1.000
  S38  S2-  0.497  0.160  0.275  1.000
  S38  S2-  0.497  0.160  0.475  1.000
  S38  S2-  0.497  0.160  0.675  1.000
  S38  S2-  0.497  0.160  0.875  1.000
  S38  S2-  0.497  0.360  0.075  1.000
  S38  S2-  0.497  0.360  0.275  1.000
  S38  S2-  0.497  0.360  0.475  1.000
  S38  S2-  0.497  0.360  0.675  1.000
  S38  S2-  0.497  0.360  0.875  1.000
  S38  S2-  0.497  0.560  0.075  1.000
  S38  S2-  0.497  0.560  0.275  1.000
  S38  S2-  0.497  0.560  0.475  1.000
  S38  S2-  0.497  0.560  0.675  1.000
  S38  S2-  0.497  0.560  0.875  1.000
  S38  S2-  0.497  0.760  0.075  1.000
  S38  S2-  0.497  0.760  0.275  1.000
  S38  S2-  0.497  0.760  0.475  1.000
  S38  S2-  0.497  0.760  0.675  1.000
  S38  S2-  0.497  0.760  0.875  1.000
  S38  S2-  0.497  0.960  0.075  1.000
  S38  S2-  0.497  0.960  0.275  1.000
  S38  S2-  0.497  0.960  0.475  1.000
  S38  S2-  0.497  0.960  0.675  1.000
  S38  S2-  0.497  0.960  0.875  1.000
  S38  S2-  0.697  0.160  0.075  1.000
  S38  S2-  0.697  0.160  0.275  1.000
  S38  S2-  0.697  0.160  0.475  1.000
  S38  S2-  0.697  0.160  0.675  1.000
  S38  S2-  0.697  0.160  0.875  1.000
  S38  S2-  0.697  0.360  0.075  1.000
  S38  S2-  0.697  0.360  0.275  1.000
  S38  S2-  0.697  0.360  0.475  1.000
  S38  S2-  0.697  0.360  0.675  1.000
  S38  S2-  0.697  0.360  0.875  1.000
  S38  S2-  0.697  0.560  0.075  1.000
  S38  S2-  0.697  0.560  0.275  1.000
  S38  S2-  0.697  0.560  0.475  1.000
  S38  S2-  0.697  0.560  0.675  1.000
  S38  S2-  0.697  0.560  0.875  1.000
  S38  S2-  0.697  0.760  0.075  1.000
  S38  S2-  0.697  0.760  0.275  1.000
  S38  S2-  0.697  0.760  0.475  1.000
  S38  S2-  0.697  0.760  0.675  1.000
  S38  S2-  0.697  0.760  0.875  1.000
  S38  S2-  0.697  0.960  0.075  1.000
  S38  S2-  0.697  0.960  0.275  1.000
  S38  S2-  0.697  0.960  0.475  1.000
  S38  S2-  0.697  0.960  0.675  1.000
  S38  S2-  0.697  0.960  0.875  1.000
  S38  S2-  0.897  0.160  0.075  1.000
  S38  S2-  0.897  0.160  0.275  1.000
  S38  S2-  0.897  0.160  0.475  1.000
  S38  S2-  0.897  0.160  0.675  1.000
  S38  S2-  0.897  0.160  0.875  1.000
  S38  S2-  0.897  0.360  0.075  1.000
  S38  S2-  0.897  0.360  0.275  1.000
  S38  S2-  0.897  0.360  0.475  1.000
  S38  S2-  0.897  0.360  0.675  1.000
  S38  S2-  0.897  0.360  0.875  1.000
  S38  S2-  0.897  0.560  0.075  1.000
  S38  S2-  0.897  0.560  0.275  1.000
  S38  S2-  0.897  0.560  0.475  1.000
  S38  S2-  0.897  0.560  0.675  1.000
  S38  S2-  0.897  0.560  0.875  1.000
  S38  S2-  0.897  0.760  0.075  1.000
  S38  S2-  0.897  0.760  0.275  1.000
  S38  S2-  0.897  0.760  0.475  1.000
  S38  S2-  0.897  0.760  0.675  1.000
  S38  S2-  0.897  0.760  0.875  1.000
  S38  S2-  0.897  0.960  0.075  1.000
  S38  S2-  0.897  0.960  0.275  1.000
  S38  S2-  0.897  0.960  0.475  1.000
  S38  S2-  0.897  0.960  0.675  1.000
  S38  S2-  0.897  0.960  0.875  1.000
  S39  S2-  0.099  0.036  0.084  1.000
  S39  S2-  0.099  0.036  0.284  1.000
  S39  S2-  0.099  0.036  0.484  1.000
  S39  S2-  0.099  0.036  0.684  1.000
  S39  S2-  0.099  0.036  0.884  1.000
  S39  S2-  0.099  0.236  0.084  1.000
  S39  S2-  0.099  0.236  0.284  1.000
  S39  S2-  0.099  0.236  0.484  1.000
  S39  S2-  0.099  0.236  0.684  1.000
  S39  S2-  0.099  0.236  0.884  1.000
  S39  S2-  0.099  0.436  0.084  1.000
  S39  S2-  0.099  0.436  0.284  1.000
  S39  S2-  0.099  0.436  0.484  1.000
  S39  S2-  0.099  0.436  0.684  1.000
  S39  S2-  0.099  0.436  0.884  1.000
  S39  S2-  0.099  0.636  0.084  1.000
  S39  S2-  0.099  0.636  0.284  1.000
  S39  S2-  0.099  0.636  0.484  1.000
  S39  S2-  0.099  0.636  0.684  1.000
  S39  S2-  0.099  0.636  0.884  1.000
  S39  S2-  0.099  0.836  0.084  1.000
  S39  S2-  0.099  0.836  0.284  1.000
  S39  S2-  0.099  0.836  0.484  1.000
  S39  S2-  0.099  0.836  0.684  1.000
  S39  S2-  0.099  0.836  0.884  1.000
  S39  S2-  0.299  0.036  0.084  1.000
  S39  S2-  0.299  0.036  0.284  1.000
  S39  S2-  0.299  0.036  0.484  1.000
  S39  S2-  0.299  0.036  0.684  1.000
  S39  S2-  0.299  0.036  0.884  1.000
  S39  S2-  0.299  0.236  0.084  1.000
  S39  S2-  0.299  0.236  0.284  1.000
  S39  S2-  0.299  0.236  0.484  1.000
  S39  S2-  0.299  0.236  0.684  1.000
  S39  S2-  0.299  0.236  0.884  1.000
  S39  S2-  0.299  0.436  0.084  1.000
  S39  S2-  0.299  0.436  0.284  1.000
  S39  S2-  0.299  0.436  0.484  1.000
  S39  S2-  0.299  0.436  0.684  1.000
  S39  S2-  0.299  0.436  0.884  1.000
  S39  S2-  0.299  0.636  0.084  1.000
  S39  S2-  0.299  0.636  0.284  1.000
  S39  S2-  0.299  0.636  0.484  1.000
  S39  S2-  0.299  0.636  0.684  1.000
  S39  S2-  0.299  0.636  0.884  1.000
  S39  S2-  0.299  0.836  0.084  1.000
  S39  S2-  0.299  0.836  0.284  1.000
  S39  S2-  0.299  0.836  0.484  1.000
  S39  S2-  0.299  0.836  0.684  1.000
  S39  S2-  0.299  0.836  0.884  1.000
  S39  S2-  0.499  0.036  0.084  1.000
  S39  S2-  0.499  0.036  0.284  1.000
  S39  S2-  0.499  0.036  0.484  1.000
  S39  S2-  0.499  0.036  0.684  1.000
  S39  S2-  0.499  0.036  0.884  1.000
  S39  S2-  0.499  0.236  0.084  1.000
  S39  S2-  0.499  0.236  0.284  1.000
  S39  S2-  0.499  0.236  0.484  1.000
  S39  S2-  0.499  0.236  0.684  1.000
  S39  S2-  0.499  0.236  0.884  1.000
  S39  S2-  0.499  0.436  0.084  1.000
  S39  S2-  0.499  0.436  0.284  1.000
  S39  S2-  0.499  0.436  0.484  1.000
  S39  S2-  0.499  0.436  0.684  1.000
  S39  S2-  0.499  0.436  0.884  1.000
  S39  S2-  0.499  0.636  0.084  1.000
  S39  S2-  0.499  0.636  0.284  1.000
  S39  S2-  0.499  0.636  0.484  1.000
  S39  S2-  0.499  0.636  0.684  1.000
  S39  S2-  0.499  0.636  0.884  1.000
  S39  S2-  0.499  0.836  0.084  1.000
  S39  S2-  0.499  0.836  0.284  1.000
  S39  S2-  0.499  0.836  0.484  1.000
  S39  S2-  0.499  0.836  0.684  1.000
  S39  S2-  0.499  0.836  0.884  1.000
  S39  S2-  0.699  0.036  0.084  1.000
  S39  S2-  0.699  0.036  0.284  1.000
  S39  S2-  0.699  0.036  0.484  1.000
  S39  S2-  0.699  0.036  0.684  1.000
  S39  S2-  0.699  0.036  0.884  1.000
  S39  S2-  0.699  0.236  0.084  1.000
  S39  S2-  0.699  0.236  0.284  1.000
  S39  S2-  0.699  0.236  0.484  1.000
  S39  S2-  0.699  0.236  0.684  1.000
  S39  S2-  0.699  0.236  0.884  1.000
  S39  S2-  0.699  0.436  0.084  1.000
  S39  S2-  0.699  0.436  0.284  1.000
  S39  S2-  0.699  0.436  0.484  1.000
  S39  S2-  0.699  0.436  0.684  1.000
  S39  S2-  0.699  0.436  0.884  1.000
  S39  S2-  0.699  0.636  0.084  1.000
  S39  S2-  0.699  0.636  0.284  1.000
  S39  S2-  0.699  0.636  0.484  1.000
  S39  S2-  0.699  0.636  0.684  1.000
  S39  S2-  0.699  0.636  0.884  1.000
  S39  S2-  0.699  0.836  0.084  1.000
  S39  S2-  0.699  0.836  0.284  1.000
  S39  S2-  0.699  0.836  0.484  1.000
  S39  S2-  0.699  0.836  0.684  1.000
  S39  S2-  0.699  0.836  0.884  1.000
  S39  S2-  0.899  0.036  0.084  1.000
  S39  S2-  0.899  0.036  0.284  1.000
  S39  S2-  0.899  0.036  0.484  1.000
  S39  S2-  0.899  0.036  0.684  1.000
  S39  S2-  0.899  0.036  0.884  1.000
  S39  S2-  0.899  0.236  0.084  1.000
  S39  S2-  0.899  0.236  0.284  1.000
  S39  S2-  0.899  0.236  0.484  1.000
  S39  S2-  0.899  0.236  0.684  1.000
  S39  S2-  0.899  0.236  0.884  1.000
  S39  S2-  0.899  0.436  0.084  1.000
  S39  S2-  0.899  0.436  0.284  1.000
  S39  S2-  0.899  0.436  0.484  1.000
  S39  S2-  0.899  0.436  0.684  1.000
  S39  S2-  0.899  0.436  0.884  1.000
  S39  S2-  0.899  0.636  0.084  1.000
  S39  S2-  0.899  0.636  0.284  1.000
  S39  S2-  0.899  0.636  0.484  1.000
  S39  S2-  0.899  0.636  0.684  1.000
  S39  S2-  0.899  0.636  0.884  1.000
  S39  S2-  0.899  0.836  0.084  1.000
  S39  S2-  0.899  0.836  0.284  1.000
  S39  S2-  0.899  0.836  0.484  1.000
  S39  S2-  0.899  0.836  0.684  1.000
  S39  S2-  0.899  0.836  0.884  1.000
  S40  S2-  0.057  0.198  0.181  1.000
  S40  S2-  0.057  0.198  0.381  1.000
  S40  S2-  0.057  0.198  0.581  1.000
  S40  S2-  0.057  0.198  0.781  1.000
  S40  S2-  0.057  0.198  0.981  1.000
  S40  S2-  0.057  0.398  0.181  1.000
  S40  S2-  0.057  0.398  0.381  1.000
  S40  S2-  0.057  0.398  0.581  1.000
  S40  S2-  0.057  0.398  0.781  1.000
  S40  S2-  0.057  0.398  0.981  1.000
  S40  S2-  0.057  0.598  0.181  1.000
  S40  S2-  0.057  0.598  0.381  1.000
  S40  S2-  0.057  0.598  0.581  1.000
  S40  S2-  0.057  0.598  0.781  1.000
  S40  S2-  0.057  0.598  0.981  1.000
  S40  S2-  0.057  0.798  0.181  1.000
  S40  S2-  0.057  0.798  0.381  1.000
  S40  S2-  0.057  0.798  0.581  1.000
  S40  S2-  0.057  0.798  0.781  1.000
  S40  S2-  0.057  0.798  0.981  1.000
  S40  S2-  0.057  0.998  0.181  1.000
  S40  S2-  0.057  0.998  0.381  1.000
  S40  S2-  0.057  0.998  0.581  1.000
  S40  S2-  0.057  0.998  0.781  1.000
  S40  S2-  0.057  0.998  0.981  1.000
  S40  S2-  0.257  0.198  0.181  1.000
  S40  S2-  0.257  0.198  0.381  1.000
  S40  S2-  0.257  0.198  0.581  1.000
  S40  S2-  0.257  0.198  0.781  1.000
  S40  S2-  0.257  0.198  0.981  1.000
  S40  S2-  0.257  0.398  0.181  1.000
  S40  S2-  0.257  0.398  0.381  1.000
  S40  S2-  0.257  0.398  0.581  1.000
  S40  S2-  0.257  0.398  0.781  1.000
  S40  S2-  0.257  0.398  0.981  1.000
  S40  S2-  0.257  0.598  0.181  1.000
  S40  S2-  0.257  0.598  0.381  1.000
  S40  S2-  0.257  0.598  0.581  1.000
  S40  S2-  0.257  0.598  0.781  1.000
  S40  S2-  0.257  0.598  0.981  1.000
  S40  S2-  0.257  0.798  0.181  1.000
  S40  S2-  0.257  0.798  0.381  1.000
  S40  S2-  0.257  0.798  0.581  1.000
  S40  S2-  0.257  0.798  0.781  1.000
  S40  S2-  0.257  0.798  0.981  1.000
  S40  S2-  0.257  0.998  0.181  1.000
  S40  S2-  0.257  0.998  0.381  1.000
  S40  S2-  0.257  0.998  0.581  1.000
  S40  S2-  0.257  0.998  0.781  1.000
  S40  S2-  0.257  0.998  0.981  1.000
  S40  S2-  0.457  0.198  0.181  1.000
  S40  S2-  0.457  0.198  0.381  1.000
  S40  S2-  0.457  0.198  0.581  1.000
  S40  S2-  0.457  0.198  0.781  1.000
  S40  S2-  0.457  0.198  0.981  1.000
  S40  S2-  0.457  0.398  0.181  1.000
  S40  S2-  0.457  0.398  0.381  1.000
  S40  S2-  0.457  0.398  0.581  1.000
  S40  S2-  0.457  0.398  0.781  1.000
  S40  S2-  0.457  0.398  0.981  1.000
  S40  S2-  0.457  0.598  0.181  1.000
  S40  S2-  0.457  0.598  0.381  1.000
  S40  S2-  0.457  0.598  0.581  1.000
  S40  S2-  0.457  0.598  0.781  1.000
  S40  S2-  0.457  0.598  0.981  1.000
  S40  S2-  0.457  0.798  0.181  1.000
  S40  S2-  0.457  0.798  0.381  1.000
  S40  S2-  0.457  0.798  0.581  1.000
  S40  S2-  0.457  0.798  0.781  1.000
  S40  S2-  0.457  0.798  0.981  1.000
  S40  S2-  0.457  0.998  0.181  1.000
  S40  S2-  0.457  0.998  0.381  1.000
  S40  S2-  0.457  0.998  0.581  1.000
  S40  S2-  0.457  0.998  0.781  1.000
  S40  S2-  0.457  0.998  0.981  1.000
  S40  S2-  0.657  0.198  0.181  1.000
  S40  S2-  0.657  0.198  0.381  1.000
  S40  S2-  0.657  0.198  0.581  1.000
  S40  S2-  0.657  0.198  0.781  1.000
  S40  S2-  0.657  0.198  0.981  1.000
  S40  S2-  0.657  0.398  0.181  1.000
  S40  S2-  0.657  0.398  0.381  1.000
  S40  S2-  0.657  0.398  0.581  1.000
  S40  S2-  0.657  0.398  0.781  1.000
  S40  S2-  0.657  0.398  0.981  1.000
  S40  S2-  0.657  0.598  0.181  1.000
  S40  S2-  0.657  0.598  0.381  1.000
  S40  S2-  0.657  0.598  0.581  1.000
  S40  S2-  0.657  0.598  0.781  1.000
  S40  S2-  0.657  0.598  0.981  1.000
  S40  S2-  0.657  0.798  0.181  1.000
  S40  S2-  0.657  0.798  0.381  1.000
  S40  S2-  0.657  0.798  0.581  1.000
  S40  S2-  0.657  0.798  0.781  1.000
  S40  S2-  0.657  0.798  0.981  1.000
  S40  S2-  0.657  0.998  0.181  1.000
  S40  S2-  0.657  0.998  0.381  1.000
  S40  S2-  0.657  0.998  0.581  1.000
  S40  S2-  0.657  0.998  0.781  1.000
  S40  S2-  0.657  0.998  0.981  1.000
  S40  S2-  0.857  0.198  0.181  1.000
  S40  S2-  0.857  0.198  0.381  1.000
  S40  S2-  0.857  0.198  0.581  1.000
  S40  S2-  0.857  0.198  0.781  1.000
  S40  S2-  0.857  0.198  0.981  1.000
  S40  S2-  0.857  0.398  0.181  1.000
  S40  S2-  0.857  0.398  0.381  1.000
  S40  S2-  0.857  0.398  0.581  1.000
  S40  S2-  0.857  0.398  0.781  1.000
  S40  S2-  0.857  0.398  0.981  1.000
  S40  S2-  0.857  0.598  0.181  1.000
  S40  S2-  0.857  0.598  0.381  1.000
  S40  S2-  0.857  0.598  0.581  1.000
  S40  S2-  0.857  0.598  0.781  1.000
  S40  S2-  0.857  0.598  0.981  1.000
  S40  S2-  0.857  0.798  0.181  1.000
  S40  S2-  0.857  0.798  0.381  1.000
  S40  S2-  0.857  0.798  0.581  1.000
  S40  S2-  0.857  0.798  0.781  1.000
  S40  S2-  0.857  0.798  0.981  1.000
  S40  S2-  0.857  0.998  0.181  1.000
  S40  S2-  0.857  0.998  0.381  1.000
  S40  S2-  0.857  0.998  0.581  1.000
  S40  S2-  0.857  0.998  0.781  1.000
  S40  S2-  0.857  0.998  0.981  1.000
  S41  S2-  0.543  0.600  0.184  1.000
  S41  S2-  0.543  0.600  0.384  1.000
  S41  S2-  0.543  0.600  0.584  1.000
  S41  S2-  0.543  0.600  0.784  1.000
  S41  S2-  0.543  0.600  0.984  1.000
  S41  S2-  0.543  0.800  0.184  1.000
  S41  S2-  0.543  0.800  0.384  1.000
  S41  S2-  0.543  0.800  0.584  1.000
  S41  S2-  0.543  0.800  0.784  1.000
  S41  S2-  0.543  0.800  0.984  1.000
  S41  S2-  0.543  1.000  0.184  1.000
  S41  S2-  0.543  1.000  0.384  1.000
  S41  S2-  0.543  1.000  0.584  1.000
  S41  S2-  0.543  1.000  0.784  1.000
  S41  S2-  0.543  1.000  0.984  1.000
  S41  S2-  0.743  0.200  0.184  1.000
  S41  S2-  0.743  0.200  0.384  1.000
  S41  S2-  0.743  0.200  0.584  1.000
  S41  S2-  0.743  0.200  0.784  1.000
  S41  S2-  0.743  0.200  0.984  1.000
  S41  S2-  0.743  0.400  0.184  1.000
  S41  S2-  0.743  0.400  0.384  1.000
  S41  S2-  0.743  0.400  0.584  1.000
  S41  S2-  0.743  0.400  0.784  1.000
  S41  S2-  0.743  0.400  0.984  1.000
  S41  S2-  0.743  0.600  0.184  1.000
  S41  S2-  0.743  0.600  0.384  1.000
  S41  S2-  0.743  0.600  0.584  1.000
  S41  S2-  0.743  0.600  0.784  1.000
  S41  S2-  0.743  0.600  0.984  1.000
  S41  S2-  0.743  0.800  0.184  1.000
  S41  S2-  0.743  0.800  0.384  1.000
  S41  S2-  0.743  0.800  0.584  1.000
  S41  S2-  0.743  0.800  0.784  1.000
  S41  S2-  0.743  0.800  0.984  1.000
  S41  S2-  0.743  1.000  0.184  1.000
  S41  S2-  0.743  1.000  0.384  1.000
  S41  S2-  0.743  1.000  0.584  1.000
  S41  S2-  0.743  1.000  0.784  1.000
  S41  S2-  0.743  1.000  0.984  1.000
  S41  S2-  0.943  0.200  0.184  1.000
  S41  S2-  0.943  0.200  0.384  1.000
  S41  S2-  0.943  0.200  0.584  1.000
  S41  S2-  0.943  0.200  0.784  1.000
  S41  S2-  0.943  0.200  0.984  1.000
  S41  S2-  0.943  0.400  0.184  1.000
  S41  S2-  0.943  0.400  0.384  1.000
  S41  S2-  0.943  0.400  0.584  1.000
  S41  S2-  0.943  0.400  0.784  1.000
  S41  S2-  0.943  0.400  0.984  1.000
  S41  S2-  0.943  0.600  0.184  1.000
  S41  S2-  0.943  0.600  0.384  1.000
  S41  S2-  0.943  0.600  0.584  1.000
  S41  S2-  0.943  0.600  0.784  1.000
  S41  S2-  0.943  0.600  0.984  1.000
  S41  S2-  0.943  0.800  0.184  1.000
  S41  S2-  0.943  0.800  0.384  1.000
  S41  S2-  0.943  0.800  0.584  1.000
  S41  S2-  0.943  0.800  0.784  1.000
  S41  S2-  0.943  0.800  0.984  1.000
  S41  S2-  0.943  1.000  0.184  1.000
  S41  S2-  0.943  1.000  0.384  1.000
  S41  S2-  0.943  1.000  0.584  1.000
  S41  S2-  0.943  1.000  0.784  1.000
  S41  S2-  0.943  1.000  0.984  1.000
  S41  S2-  0.343  0.200  0.784  1.000
  S41  S2-  0.343  0.200  0.984  1.000
  S41  S2-  0.343  0.400  0.184  1.000
  S41  S2-  0.343  0.400  0.384  1.000
  S41  S2-  0.343  0.400  0.584  1.000
  S41  S2-  0.343  0.400  0.784  1.000
  S41  S2-  0.343  0.400  0.984  1.000
  S41  S2-  0.343  0.600  0.184  1.000
  S41  S2-  0.343  0.600  0.384  1.000
  S41  S2-  0.343  0.600  0.584  1.000
  S41  S2-  0.343  0.600  0.784  1.000
  S41  S2-  0.343  0.600  0.984  1.000
  S41  S2-  0.343  0.800  0.184  1.000
  S41  S2-  0.343  0.800  0.384  1.000
  S41  S2-  0.343  0.800  0.584  1.000
  S41  S2-  0.343  0.800  0.784  1.000
  S41  S2-  0.343  0.800  0.984  1.000
  S41  S2-  0.343  1.000  0.184  1.000
  S41  S2-  0.343  1.000  0.384  1.000
  S41  S2-  0.343  1.000  0.584  1.000
  S41  S2-  0.343  1.000  0.784  1.000
  S41  S2-  0.343  1.000  0.984  1.000
  S41  S2-  0.543  0.200  0.184  1.000
  S41  S2-  0.543  0.200  0.384  1.000
  S41  S2-  0.543  0.200  0.584  1.000
  S41  S2-  0.543  0.200  0.784  1.000
  S41  S2-  0.543  0.200  0.984  1.000
  S41  S2-  0.543  0.400  0.184  1.000
  S41  S2-  0.543  0.400  0.384  1.000
  S41  S2-  0.543  0.400  0.584  1.000
  S41  S2-  0.543  0.400  0.784  1.000
  S41  S2-  0.543  0.400  0.984  1.000
  S41  S2-  0.143  0.200  0.184  1.000
  S41  S2-  0.143  0.200  0.384  1.000
  S41  S2-  0.143  0.200  0.584  1.000
  S41  S2-  0.143  0.200  0.784  1.000
  S41  S2-  0.143  0.200  0.984  1.000
  S41  S2-  0.143  0.400  0.184  1.000
  S41  S2-  0.143  0.400  0.384  1.000
  S41  S2-  0.143  0.400  0.584  1.000
  S41  S2-  0.143  0.400  0.784  1.000
  S41  S2-  0.143  0.400  0.984  1.000
  S41  S2-  0.143  0.600  0.184  1.000
  S41  S2-  0.143  0.600  0.384  1.000
  S41  S2-  0.143  0.600  0.584  1.000
  S41  S2-  0.143  0.600  0.784  1.000
  S41  S2-  0.143  0.600  0.984  1.000
  S41  S2-  0.143  0.800  0.184  1.000
  S41  S2-  0.143  0.800  0.384  1.000
  S41  S2-  0.143  0.800  0.584  1.000
  S41  S2-  0.143  0.800  0.784  1.000
  S41  S2-  0.143  0.800  0.984  1.000
  S41  S2-  0.143  1.000  0.184  1.000
  S41  S2-  0.143  1.000  0.384  1.000
  S41  S2-  0.143  1.000  0.584  1.000
  S41  S2-  0.143  1.000  0.784  1.000
  S41  S2-  0.143  1.000  0.984  1.000
  S41  S2-  0.343  0.200  0.184  1.000
  S41  S2-  0.343  0.200  0.384  1.000
  S41  S2-  0.343  0.200  0.584  1.000
  S42  S2-  0.399  0.133  0.758  1.000
  S42  S2-  0.399  0.133  0.958  1.000
  S42  S2-  0.399  0.333  0.158  1.000
  S42  S2-  0.399  0.333  0.358  1.000
  S42  S2-  0.399  0.333  0.558  1.000
  S42  S2-  0.399  0.333  0.758  1.000
  S42  S2-  0.399  0.333  0.958  1.000
  S42  S2-  0.399  0.533  0.158  1.000
  S42  S2-  0.399  0.533  0.358  1.000
  S42  S2-  0.399  0.533  0.558  1.000
  S42  S2-  0.399  0.533  0.758  1.000
  S42  S2-  0.399  0.533  0.958  1.000
  S42  S2-  0.399  0.733  0.158  1.000
  S42  S2-  0.399  0.733  0.358  1.000
  S42  S2-  0.399  0.733  0.558  1.000
  S42  S2-  0.399  0.733  0.758  1.000
  S42  S2-  0.399  0.733  0.958  1.000
  S42  S2-  0.399  0.933  0.158  1.000
  S42  S2-  0.399  0.933  0.358  1.000
  S42  S2-  0.399  0.933  0.558  1.000
  S42  S2-  0.399  0.933  0.758  1.000
  S42  S2-  0.399  0.933  0.958  1.000
  S42  S2-  0.599  0.133  0.158  1.000
  S42  S2-  0.599  0.133  0.358  1.000
  S42  S2-  0.599  0.133  0.558  1.000
  S42  S2-  0.599  0.133  0.758  1.000
  S42  S2-  0.599  0.133  0.958  1.000
  S42  S2-  0.599  0.333  0.158  1.000
  S42  S2-  0.599  0.333  0.358  1.000
  S42  S2-  0.599  0.333  0.558  1.000
  S42  S2-  0.599  0.333  0.758  1.000
  S42  S2-  0.599  0.333  0.958  1.000
  S42  S2-  0.599  0.533  0.158  1.000
  S42  S2-  0.599  0.533  0.358  1.000
  S42  S2-  0.599  0.533  0.558  1.000
  S42  S2-  0.599  0.533  0.758  1.000
  S42  S2-  0.599  0.533  0.958  1.000
  S42  S2-  0.599  0.733  0.158  1.000
  S42  S2-  0.599  0.733  0.358  1.000
  S42  S2-  0.599  0.733  0.558  1.000
  S42  S2-  0.599  0.733  0.758  1.000
  S42  S2-  0.599  0.733  0.958  1.000
  S42  S2-  0.599  0.933  0.158  1.000
  S42  S2-  0.599  0.933  0.358  1.000
  S42  S2-  0.599  0.933  0.558  1.000
  S42  S2-  0.599  0.933  0.758  1.000
  S42  S2-  0.599  0.933  0.958  1.000
  S42  S2-  0.799  0.133  0.158  1.000
  S42  S2-  0.799  0.133  0.358  1.000
  S42  S2-  0.799  0.133  0.558  1.000
  S42  S2-  0.799  0.133  0.758  1.000
  S42  S2-  0.799  0.133  0.958  1.000
  S42  S2-  0.799  0.333  0.158  1.000
  S42  S2-  0.799  0.333  0.358  1.000
  S42  S2-  0.799  0.333  0.558  1.000
  S42  S2-  0.799  0.333  0.758  1.000
  S42  S2-  0.799  0.333  0.958  1.000
  S42  S2-  0.799  0.533  0.158  1.000
  S42  S2-  0.799  0.533  0.358  1.000
  S42  S2-  0.799  0.533  0.558  1.000
  S42  S2-  0.799  0.533  0.758  1.000
  S42  S2-  0.799  0.533  0.958  1.000
  S42  S2-  0.799  0.733  0.158  1.000
  S42  S2-  0.799  0.733  0.358  1.000
  S42  S2-  0.799  0.733  0.558  1.000
  S42  S2-  0.799  0.733  0.758  1.000
  S42  S2-  0.799  0.733  0.958  1.000
  S42  S2-  0.799  0.933  0.158  1.000
  S42  S2-  0.799  0.933  0.358  1.000
  S42  S2-  0.799  0.933  0.558  1.000
  S42  S2-  0.799  0.933  0.758  1.000
  S42  S2-  0.799  0.933  0.958  1.000
  S42  S2-  0.999  0.133  0.158  1.000
  S42  S2-  0.999  0.133  0.358  1.000
  S42  S2-  0.999  0.133  0.558  1.000
  S42  S2-  0.999  0.133  0.758  1.000
  S42  S2-  0.999  0.133  0.958  1.000
  S42  S2-  0.999  0.333  0.158  1.000
  S42  S2-  0.999  0.333  0.358  1.000
  S42  S2-  0.999  0.333  0.558  1.000
  S42  S2-  0.999  0.333  0.758  1.000
  S42  S2-  0.999  0.333  0.958  1.000
  S42  S2-  0.999  0.533  0.158  1.000
  S42  S2-  0.999  0.533  0.358  1.000
  S42  S2-  0.999  0.533  0.558  1.000
  S42  S2-  0.999  0.533  0.758  1.000
  S42  S2-  0.999  0.533  0.958  1.000
  S42  S2-  0.999  0.733  0.158  1.000
  S42  S2-  0.999  0.733  0.358  1.000
  S42  S2-  0.999  0.733  0.558  1.000
  S42  S2-  0.999  0.733  0.758  1.000
  S42  S2-  0.999  0.733  0.958  1.000
  S42  S2-  0.999  0.933  0.158  1.000
  S42  S2-  0.999  0.933  0.358  1.000
  S42  S2-  0.999  0.933  0.558  1.000
  S42  S2-  0.999  0.933  0.758  1.000
  S42  S2-  0.999  0.933  0.958  1.000
  S42  S2-  0.199  0.133  0.158  1.000
  S42  S2-  0.199  0.133  0.358  1.000
  S42  S2-  0.199  0.133  0.558  1.000
  S42  S2-  0.199  0.133  0.758  1.000
  S42  S2-  0.199  0.133  0.958  1.000
  S42  S2-  0.199  0.333  0.158  1.000
  S42  S2-  0.199  0.333  0.358  1.000
  S42  S2-  0.199  0.333  0.558  1.000
  S42  S2-  0.199  0.333  0.758  1.000
  S42  S2-  0.199  0.333  0.958  1.000
  S42  S2-  0.199  0.533  0.158  1.000
  S42  S2-  0.199  0.533  0.358  1.000
  S42  S2-  0.199  0.533  0.558  1.000
  S42  S2-  0.199  0.533  0.758  1.000
  S42  S2-  0.199  0.533  0.958  1.000
  S42  S2-  0.199  0.733  0.158  1.000
  S42  S2-  0.199  0.733  0.358  1.000
  S42  S2-  0.199  0.733  0.558  1.000
  S42  S2-  0.199  0.733  0.758  1.000
  S42  S2-  0.199  0.733  0.958  1.000
  S42  S2-  0.199  0.933  0.158  1.000
  S42  S2-  0.199  0.933  0.358  1.000
  S42  S2-  0.199  0.933  0.558  1.000
  S42  S2-  0.199  0.933  0.758  1.000
  S42  S2-  0.199  0.933  0.958  1.000
  S42  S2-  0.399  0.133  0.158  1.000
  S42  S2-  0.399  0.133  0.358  1.000
  S42  S2-  0.399  0.133  0.558  1.000
  S43  S2-  0.201  0.056  0.752  1.000
  S43  S2-  0.201  0.056  0.952  1.000
  S43  S2-  0.201  0.256  0.152  1.000
  S43  S2-  0.201  0.256  0.352  1.000
  S43  S2-  0.201  0.256  0.552  1.000
  S43  S2-  0.201  0.256  0.752  1.000
  S43  S2-  0.201  0.256  0.952  1.000
  S43  S2-  0.201  0.456  0.152  1.000
  S43  S2-  0.201  0.456  0.352  1.000
  S43  S2-  0.201  0.456  0.552  1.000
  S43  S2-  0.201  0.456  0.752  1.000
  S43  S2-  0.201  0.456  0.952  1.000
  S43  S2-  0.201  0.656  0.152  1.000
  S43  S2-  0.201  0.656  0.352  1.000
  S43  S2-  0.201  0.656  0.552  1.000
  S43  S2-  0.201  0.656  0.752  1.000
  S43  S2-  0.201  0.656  0.952  1.000
  S43  S2-  0.201  0.856  0.152  1.000
  S43  S2-  0.201  0.856  0.352  1.000
  S43  S2-  0.201  0.856  0.552  1.000
  S43  S2-  0.201  0.856  0.752  1.000
  S43  S2-  0.201  0.856  0.952  1.000
  S43  S2-  0.401  0.056  0.152  1.000
  S43  S2-  0.401  0.056  0.352  1.000
  S43  S2-  0.401  0.056  0.552  1.000
  S43  S2-  0.401  0.056  0.752  1.000
  S43  S2-  0.401  0.056  0.952  1.000
  S43  S2-  0.401  0.256  0.152  1.000
  S43  S2-  0.401  0.256  0.352  1.000
  S43  S2-  0.401  0.256  0.552  1.000
  S43  S2-  0.401  0.256  0.752  1.000
  S43  S2-  0.401  0.256  0.952  1.000
  S43  S2-  0.401  0.456  0.152  1.000
  S43  S2-  0.401  0.456  0.352  1.000
  S43  S2-  0.401  0.456  0.552  1.000
  S43  S2-  0.401  0.456  0.752  1.000
  S43  S2-  0.401  0.456  0.952  1.000
  S43  S2-  0.401  0.656  0.152  1.000
  S43  S2-  0.401  0.656  0.352  1.000
  S43  S2-  0.401  0.656  0.552  1.000
  S43  S2-  0.401  0.656  0.752  1.000
  S43  S2-  0.401  0.656  0.952  1.000
  S43  S2-  0.401  0.856  0.152  1.000
  S43  S2-  0.401  0.856  0.352  1.000
  S43  S2-  0.401  0.856  0.552  1.000
  S43  S2-  0.401  0.856  0.752  1.000
  S43  S2-  0.401  0.856  0.952  1.000
  S43  S2-  0.601  0.056  0.152  1.000
  S43  S2-  0.601  0.056  0.352  1.000
  S43  S2-  0.601  0.056  0.552  1.000
  S43  S2-  0.601  0.056  0.752  1.000
  S43  S2-  0.601  0.056  0.952  1.000
  S43  S2-  0.601  0.256  0.152  1.000
  S43  S2-  0.601  0.256  0.352  1.000
  S43  S2-  0.601  0.256  0.552  1.000
  S43  S2-  0.601  0.256  0.752  1.000
  S43  S2-  0.601  0.256  0.952  1.000
  S43  S2-  0.601  0.456  0.152  1.000
  S43  S2-  0.601  0.456  0.352  1.000
  S43  S2-  0.601  0.456  0.552  1.000
  S43  S2-  0.601  0.456  0.752  1.000
  S43  S2-  0.601  0.456  0.952  1.000
  S43  S2-  0.601  0.656  0.152  1.000
  S43  S2-  0.601  0.656  0.352  1.000
  S43  S2-  0.601  0.656  0.552  1.000
  S43  S2-  0.601  0.656  0.752  1.000
  S43  S2-  0.601  0.656  0.952  1.000
  S43  S2-  0.601  0.856  0.152  1.000
  S43  S2-  0.601  0.856  0.352  1.000
  S43  S2-  0.601  0.856  0.552  1.000
  S43  S2-  0.601  0.856  0.752  1.000
  S43  S2-  0.601  0.856  0.952  1.000
  S43  S2-  0.801  0.056  0.152  1.000
  S43  S2-  0.801  0.056  0.352  1.000
  S43  S2-  0.801  0.056  0.552  1.000
  S43  S2-  0.801  0.056  0.752  1.000
  S43  S2-  0.801  0.056  0.952  1.000
  S43  S2-  0.801  0.256  0.152  1.000
  S43  S2-  0.801  0.256  0.352  1.000
  S43  S2-  0.801  0.256  0.552  1.000
  S43  S2-  0.801  0.256  0.752  1.000
  S43  S2-  0.801  0.256  0.952  1.000
  S43  S2-  0.801  0.456  0.152  1.000
  S43  S2-  0.801  0.456  0.352  1.000
  S43  S2-  0.801  0.456  0.552  1.000
  S43  S2-  0.801  0.456  0.752  1.000
  S43  S2-  0.801  0.456  0.952  1.000
  S43  S2-  0.801  0.656  0.152  1.000
  S43  S2-  0.801  0.656  0.352  1.000
  S43  S2-  0.801  0.656  0.552  1.000
  S43  S2-  0.801  0.656  0.752  1.000
  S43  S2-  0.801  0.656  0.952  1.000
  S43  S2-  0.801  0.856  0.152  1.000
  S43  S2-  0.801  0.856  0.352  1.000
  S43  S2-  0.801  0.856  0.552  1.000
  S43  S2-  0.801  0.856  0.752  1.000
  S43  S2-  0.801  0.856  0.952  1.000
  S43  S2-  0.001  0.056  0.152  1.000
  S43  S2-  0.001  0.056  0.352  1.000
  S43  S2-  0.001  0.056  0.552  1.000
  S43  S2-  0.001  0.056  0.752  1.000
  S43  S2-  0.001  0.056  0.952  1.000
  S43  S2-  0.001  0.256  0.152  1.000
  S43  S2-  0.001  0.256  0.352  1.000
  S43  S2-  0.001  0.256  0.552  1.000
  S43  S2-  0.001  0.256  0.752  1.000
  S43  S2-  0.001  0.256  0.952  1.000
  S43  S2-  0.001  0.456  0.152  1.000
  S43  S2-  0.001  0.456  0.352  1.000
  S43  S2-  0.001  0.456  0.552  1.000
  S43  S2-  0.001  0.456  0.752  1.000
  S43  S2-  0.001  0.456  0.952  1.000
  S43  S2-  0.001  0.656  0.152  1.000
  S43  S2-  0.001  0.656  0.352  1.000
  S43  S2-  0.001  0.656  0.552  1.000
  S43  S2-  0.001  0.656  0.752  1.000
  S43  S2-  0.001  0.656  0.952  1.000
  S43  S2-  0.001  0.856  0.152  1.000
  S43  S2-  0.001  0.856  0.352  1.000
  S43  S2-  0.001  0.856  0.552  1.000
  S43  S2-  0.001  0.856  0.752  1.000
  S43  S2-  0.001  0.856  0.952  1.000
  S43  S2-  0.201  0.056  0.152  1.000
  S43  S2-  0.201  0.056  0.352  1.000
  S43  S2-  0.201  0.056  0.552  1.000
  S44  S2-  0.356  0.093  0.655  1.000
  S44  S2-  0.356  0.093  0.855  1.000
  S44  S2-  0.356  0.293  0.055  1.000
  S44  S2-  0.356  0.293  0.255  1.000
  S44  S2-  0.356  0.293  0.455  1.000
  S44  S2-  0.356  0.293  0.655  1.000
  S44  S2-  0.356  0.293  0.855  1.000
  S44  S2-  0.356  0.493  0.055  1.000
  S44  S2-  0.356  0.493  0.255  1.000
  S44  S2-  0.356  0.493  0.455  1.000
  S44  S2-  0.356  0.493  0.655  1.000
  S44  S2-  0.356  0.493  0.855  1.000
  S44  S2-  0.356  0.693  0.055  1.000
  S44  S2-  0.356  0.693  0.255  1.000
  S44  S2-  0.356  0.693  0.455  1.000
  S44  S2-  0.356  0.693  0.655  1.000
  S44  S2-  0.356  0.693  0.855  1.000
  S44  S2-  0.356  0.893  0.055  1.000
  S44  S2-  0.356  0.893  0.255  1.000
  S44  S2-  0.356  0.893  0.455  1.000
  S44  S2-  0.356  0.893  0.655  1.000
  S44  S2-  0.356  0.893  0.855  1.000
  S44  S2-  0.556  0.093  0.055  1.000
  S44  S2-  0.556  0.093  0.255  1.000
  S44  S2-  0.556  0.093  0.455  1.000
  S44  S2-  0.556  0.093  0.655  1.000
  S44  S2-  0.556  0.093  0.855  1.000
  S44  S2-  0.556  0.293  0.055  1.000
  S44  S2-  0.556  0.293  0.255  1.000
  S44  S2-  0.556  0.293  0.455  1.000
  S44  S2-  0.556  0.293  0.655  1.000
  S44  S2-  0.556  0.293  0.855  1.000
  S44  S2-  0.556  0.493  0.055  1.000
  S44  S2-  0.556  0.493  0.255  1.000
  S44  S2-  0.556  0.493  0.455  1.000
  S44  S2-  0.556  0.493  0.655  1.000
  S44  S2-  0.556  0.493  0.855  1.000
  S44  S2-  0.556  0.693  0.055  1.000
  S44  S2-  0.556  0.693  0.255  1.000
  S44  S2-  0.556  0.693  0.455  1.000
  S44  S2-  0.556  0.693  0.655  1.000
  S44  S2-  0.556  0.693  0.855  1.000
  S44  S2-  0.556  0.893  0.055  1.000
  S44  S2-  0.556  0.893  0.255  1.000
  S44  S2-  0.556  0.893  0.455  1.000
  S44  S2-  0.556  0.893  0.655  1.000
  S44  S2-  0.556  0.893  0.855  1.000
  S44  S2-  0.756  0.093  0.055  1.000
  S44  S2-  0.756  0.093  0.255  1.000
  S44  S2-  0.756  0.093  0.455  1.000
  S44  S2-  0.756  0.093  0.655  1.000
  S44  S2-  0.756  0.093  0.855  1.000
  S44  S2-  0.756  0.293  0.055  1.000
  S44  S2-  0.756  0.293  0.255  1.000
  S44  S2-  0.756  0.293  0.455  1.000
  S44  S2-  0.756  0.293  0.655  1.000
  S44  S2-  0.756  0.293  0.855  1.000
  S44  S2-  0.756  0.493  0.055  1.000
  S44  S2-  0.756  0.493  0.255  1.000
  S44  S2-  0.756  0.493  0.455  1.000
  S44  S2-  0.756  0.493  0.655  1.000
  S44  S2-  0.756  0.493  0.855  1.000
  S44  S2-  0.756  0.693  0.055  1.000
  S44  S2-  0.756  0.693  0.255  1.000
  S44  S2-  0.756  0.693  0.455  1.000
  S44  S2-  0.756  0.693  0.655  1.000
  S44  S2-  0.756  0.693  0.855  1.000
  S44  S2-  0.756  0.893  0.055  1.000
  S44  S2-  0.756  0.893  0.255  1.000
  S44  S2-  0.756  0.893  0.455  1.000
  S44  S2-  0.756  0.893  0.655  1.000
  S44  S2-  0.756  0.893  0.855  1.000
  S44  S2-  0.956  0.093  0.055  1.000
  S44  S2-  0.956  0.093  0.255  1.000
  S44  S2-  0.956  0.093  0.455  1.000
  S44  S2-  0.956  0.093  0.655  1.000
  S44  S2-  0.956  0.093  0.855  1.000
  S44  S2-  0.956  0.293  0.055  1.000
  S44  S2-  0.956  0.293  0.255  1.000
  S44  S2-  0.956  0.293  0.455  1.000
  S44  S2-  0.956  0.293  0.655  1.000
  S44  S2-  0.956  0.293  0.855  1.000
  S44  S2-  0.956  0.493  0.055  1.000
  S44  S2-  0.956  0.493  0.255  1.000
  S44  S2-  0.956  0.493  0.455  1.000
  S44  S2-  0.956  0.493  0.655  1.000
  S44  S2-  0.956  0.493  0.855  1.000
  S44  S2-  0.956  0.693  0.055  1.000
  S44  S2-  0.956  0.693  0.255  1.000
  S44  S2-  0.956  0.693  0.455  1.000
  S44  S2-  0.956  0.693  0.655  1.000
  S44  S2-  0.956  0.693  0.855  1.000
  S44  S2-  0.956  0.893  0.055  1.000
  S44  S2-  0.956  0.893  0.255  1.000
  S44  S2-  0.956  0.893  0.455  1.000
  S44  S2-  0.956  0.893  0.655  1.000
  S44  S2-  0.956  0.893  0.855  1.000
  S44  S2-  0.156  0.093  0.055  1.000
  S44  S2-  0.156  0.093  0.255  1.000
  S44  S2-  0.156  0.093  0.455  1.000
  S44  S2-  0.156  0.093  0.655  1.000
  S44  S2-  0.156  0.093  0.855  1.000
  S44  S2-  0.156  0.293  0.055  1.000
  S44  S2-  0.156  0.293  0.255  1.000
  S44  S2-  0.156  0.293  0.455  1.000
  S44  S2-  0.156  0.293  0.655  1.000
  S44  S2-  0.156  0.293  0.855  1.000
  S44  S2-  0.156  0.493  0.055  1.000
  S44  S2-  0.156  0.493  0.255  1.000
  S44  S2-  0.156  0.493  0.455  1.000
  S44  S2-  0.156  0.493  0.655  1.000
  S44  S2-  0.156  0.493  0.855  1.000
  S44  S2-  0.156  0.693  0.055  1.000
  S44  S2-  0.156  0.693  0.255  1.000
  S44  S2-  0.156  0.693  0.455  1.000
  S44  S2-  0.156  0.693  0.655  1.000
  S44  S2-  0.156  0.693  0.855  1.000
  S44  S2-  0.156  0.893  0.055  1.000
  S44  S2-  0.156  0.893  0.255  1.000
  S44  S2-  0.156  0.893  0.455  1.000
  S44  S2-  0.156  0.893  0.655  1.000
  S44  S2-  0.156  0.893  0.855  1.000
  S44  S2-  0.356  0.093  0.055  1.000
  S44  S2-  0.356  0.093  0.255  1.000
  S44  S2-  0.356  0.093  0.455  1.000
  S45  S2-  0.240  0.096  0.658  1.000
  S45  S2-  0.240  0.096  0.858  1.000
  S45  S2-  0.240  0.296  0.058  1.000
  S45  S2-  0.240  0.296  0.258  1.000
  S45  S2-  0.240  0.296  0.458  1.000
  S45  S2-  0.240  0.296  0.658  1.000
  S45  S2-  0.240  0.296  0.858  1.000
  S45  S2-  0.240  0.496  0.058  1.000
  S45  S2-  0.240  0.496  0.258  1.000
  S45  S2-  0.240  0.496  0.458  1.000
  S45  S2-  0.240  0.496  0.658  1.000
  S45  S2-  0.240  0.496  0.858  1.000
  S45  S2-  0.240  0.696  0.058  1.000
  S45  S2-  0.240  0.696  0.258  1.000
  S45  S2-  0.240  0.696  0.458  1.000
  S45  S2-  0.240  0.696  0.658  1.000
  S45  S2-  0.240  0.696  0.858  1.000
  S45  S2-  0.240  0.896  0.058  1.000
  S45  S2-  0.240  0.896  0.258  1.000
  S45  S2-  0.240  0.896  0.458  1.000
  S45  S2-  0.240  0.896  0.658  1.000
  S45  S2-  0.240  0.896  0.858  1.000
  S45  S2-  0.440  0.096  0.058  1.000
  S45  S2-  0.440  0.096  0.258  1.000
  S45  S2-  0.440  0.096  0.458  1.000
  S45  S2-  0.440  0.096  0.658  1.000
  S45  S2-  0.440  0.096  0.858  1.000
  S45  S2-  0.440  0.296  0.058  1.000
  S45  S2-  0.440  0.296  0.258  1.000
  S45  S2-  0.440  0.296  0.458  1.000
  S45  S2-  0.440  0.296  0.658  1.000
  S45  S2-  0.440  0.296  0.858  1.000
  S45  S2-  0.440  0.496  0.058  1.000
  S45  S2-  0.440  0.496  0.258  1.000
  S45  S2-  0.440  0.496  0.458  1.000
  S45  S2-  0.440  0.496  0.658  1.000
  S45  S2-  0.440  0.496  0.858  1.000
  S45  S2-  0.440  0.696  0.058  1.000
  S45  S2-  0.440  0.696  0.258  1.000
  S45  S2-  0.440  0.696  0.458  1.000
  S45  S2-  0.440  0.696  0.658  1.000
  S45  S2-  0.440  0.696  0.858  1.000
  S45  S2-  0.440  0.896  0.058  1.000
  S45  S2-  0.440  0.896  0.258  1.000
  S45  S2-  0.440  0.896  0.458  1.000
  S45  S2-  0.440  0.896  0.658  1.000
  S45  S2-  0.440  0.896  0.858  1.000
  S45  S2-  0.640  0.096  0.058  1.000
  S45  S2-  0.640  0.096  0.258  1.000
  S45  S2-  0.640  0.096  0.458  1.000
  S45  S2-  0.640  0.096  0.658  1.000
  S45  S2-  0.640  0.096  0.858  1.000
  S45  S2-  0.640  0.296  0.058  1.000
  S45  S2-  0.640  0.296  0.258  1.000
  S45  S2-  0.640  0.296  0.458  1.000
  S45  S2-  0.640  0.296  0.658  1.000
  S45  S2-  0.640  0.296  0.858  1.000
  S45  S2-  0.640  0.496  0.058  1.000
  S45  S2-  0.640  0.496  0.258  1.000
  S45  S2-  0.640  0.496  0.458  1.000
  S45  S2-  0.640  0.496  0.658  1.000
  S45  S2-  0.640  0.496  0.858  1.000
  S45  S2-  0.640  0.696  0.058  1.000
  S45  S2-  0.640  0.696  0.258  1.000
  S45  S2-  0.640  0.696  0.458  1.000
  S45  S2-  0.640  0.696  0.658  1.000
  S45  S2-  0.640  0.696  0.858  1.000
  S45  S2-  0.640  0.896  0.058  1.000
  S45  S2-  0.640  0.896  0.258  1.000
  S45  S2-  0.640  0.896  0.458  1.000
  S45  S2-  0.640  0.896  0.658  1.000
  S45  S2-  0.640  0.896  0.858  1.000
  S45  S2-  0.840  0.096  0.058  1.000
  S45  S2-  0.840  0.096  0.258  1.000
  S45  S2-  0.840  0.096  0.458  1.000
  S45  S2-  0.840  0.096  0.658  1.000
  S45  S2-  0.840  0.096  0.858  1.000
  S45  S2-  0.840  0.296  0.058  1.000
  S45  S2-  0.840  0.296  0.258  1.000
  S45  S2-  0.840  0.296  0.458  1.000
  S45  S2-  0.840  0.296  0.658  1.000
  S45  S2-  0.840  0.296  0.858  1.000
  S45  S2-  0.840  0.496  0.058  1.000
  S45  S2-  0.840  0.496  0.258  1.000
  S45  S2-  0.840  0.496  0.458  1.000
  S45  S2-  0.840  0.496  0.658  1.000
  S45  S2-  0.840  0.496  0.858  1.000
  S45  S2-  0.840  0.696  0.058  1.000
  S45  S2-  0.840  0.696  0.258  1.000
  S45  S2-  0.840  0.696  0.458  1.000
  S45  S2-  0.840  0.696  0.658  1.000
  S45  S2-  0.840  0.696  0.858  1.000
  S45  S2-  0.840  0.896  0.058  1.000
  S45  S2-  0.840  0.896  0.258  1.000
  S45  S2-  0.840  0.896  0.458  1.000
  S45  S2-  0.840  0.896  0.658  1.000
  S45  S2-  0.840  0.896  0.858  1.000
  S45  S2-  0.040  0.096  0.058  1.000
  S45  S2-  0.040  0.096  0.258  1.000
  S45  S2-  0.040  0.096  0.458  1.000
  S45  S2-  0.040  0.096  0.658  1.000
  S45  S2-  0.040  0.096  0.858  1.000
  S45  S2-  0.040  0.296  0.058  1.000
  S45  S2-  0.040  0.296  0.258  1.000
  S45  S2-  0.040  0.296  0.458  1.000
  S45  S2-  0.040  0.296  0.658  1.000
  S45  S2-  0.040  0.296  0.858  1.000
  S45  S2-  0.040  0.496  0.058  1.000
  S45  S2-  0.040  0.496  0.258  1.000
  S45  S2-  0.040  0.496  0.458  1.000
  S45  S2-  0.040  0.496  0.658  1.000
  S45  S2-  0.040  0.496  0.858  1.000
  S45  S2-  0.040  0.696  0.058  1.000
  S45  S2-  0.040  0.696  0.258  1.000
  S45  S2-  0.040  0.696  0.458  1.000
  S45  S2-  0.040  0.696  0.658  1.000
  S45  S2-  0.040  0.696  0.858  1.000
  S45  S2-  0.040  0.896  0.058  1.000
  S45  S2-  0.040  0.896  0.258  1.000
  S45  S2-  0.040  0.896  0.458  1.000
  S45  S2-  0.040  0.896  0.658  1.000
  S45  S2-  0.040  0.896  0.858  1.000
  S45  S2-  0.240  0.096  0.058  1.000
  S45  S2-  0.240  0.096  0.258  1.000
  S45  S2-  0.240  0.096  0.458  1.000
  S46  S2-  0.303  0.040  0.744  1.000
  S46  S2-  0.303  0.040  0.944  1.000
  S46  S2-  0.303  0.240  0.144  1.000
  S46  S2-  0.303  0.240  0.344  1.000
  S46  S2-  0.303  0.240  0.544  1.000
  S46  S2-  0.303  0.240  0.744  1.000
  S46  S2-  0.303  0.240  0.944  1.000
  S46  S2-  0.303  0.440  0.144  1.000
  S46  S2-  0.303  0.440  0.344  1.000
  S46  S2-  0.303  0.440  0.544  1.000
  S46  S2-  0.303  0.440  0.744  1.000
  S46  S2-  0.303  0.440  0.944  1.000
  S46  S2-  0.303  0.640  0.144  1.000
  S46  S2-  0.303  0.640  0.344  1.000
  S46  S2-  0.303  0.640  0.544  1.000
  S46  S2-  0.303  0.640  0.744  1.000
  S46  S2-  0.303  0.640  0.944  1.000
  S46  S2-  0.303  0.840  0.144  1.000
  S46  S2-  0.303  0.840  0.344  1.000
  S46  S2-  0.303  0.840  0.544  1.000
  S46  S2-  0.303  0.840  0.744  1.000
  S46  S2-  0.303  0.840  0.944  1.000
  S46  S2-  0.503  0.040  0.144  1.000
  S46  S2-  0.503  0.040  0.344  1.000
  S46  S2-  0.503  0.040  0.544  1.000
  S46  S2-  0.503  0.040  0.744  1.000
  S46  S2-  0.503  0.040  0.944  1.000
  S46  S2-  0.503  0.240  0.144  1.000
  S46  S2-  0.503  0.240  0.344  1.000
  S46  S2-  0.503  0.240  0.544  1.000
  S46  S2-  0.503  0.240  0.744  1.000
  S46  S2-  0.503  0.240  0.944  1.000
  S46  S2-  0.503  0.440  0.144  1.000
  S46  S2-  0.503  0.440  0.344  1.000
  S46  S2-  0.503  0.440  0.544  1.000
  S46  S2-  0.503  0.440  0.744  1.000
  S46  S2-  0.503  0.440  0.944  1.000
  S46  S2-  0.503  0.640  0.144  1.000
  S46  S2-  0.503  0.640  0.344  1.000
  S46  S2-  0.503  0.640  0.544  1.000
  S46  S2-  0.503  0.640  0.744  1.000
  S46  S2-  0.503  0.640  0.944  1.000
  S46  S2-  0.503  0.840  0.144  1.000
  S46  S2-  0.503  0.840  0.344  1.000
  S46  S2-  0.503  0.840  0.544  1.000
  S46  S2-  0.503  0.840  0.744  1.000
  S46  S2-  0.503  0.840  0.944  1.000
  S46  S2-  0.703  0.040  0.144  1.000
  S46  S2-  0.703  0.040  0.344  1.000
  S46  S2-  0.703  0.040  0.544  1.000
  S46  S2-  0.703  0.040  0.744  1.000
  S46  S2-  0.703  0.040  0.944  1.000
  S46  S2-  0.703  0.240  0.144  1.000
  S46  S2-  0.703  0.240  0.344  1.000
  S46  S2-  0.703  0.240  0.544  1.000
  S46  S2-  0.703  0.240  0.744  1.000
  S46  S2-  0.703  0.240  0.944  1.000
  S46  S2-  0.703  0.440  0.144  1.000
  S46  S2-  0.703  0.440  0.344  1.000
  S46  S2-  0.703  0.440  0.544  1.000
  S46  S2-  0.703  0.440  0.744  1.000
  S46  S2-  0.703  0.440  0.944  1.000
  S46  S2-  0.703  0.640  0.144  1.000
  S46  S2-  0.703  0.640  0.344  1.000
  S46  S2-  0.703  0.640  0.544  1.000
  S46  S2-  0.703  0.640  0.744  1.000
  S46  S2-  0.703  0.640  0.944  1.000
  S46  S2-  0.703  0.840  0.144  1.000
  S46  S2-  0.703  0.840  0.344  1.000
  S46  S2-  0.703  0.840  0.544  1.000
  S46  S2-  0.703  0.840  0.744  1.000
  S46  S2-  0.703  0.840  0.944  1.000
  S46  S2-  0.903  0.040  0.144  1.000
  S46  S2-  0.903  0.040  0.344  1.000
  S46  S2-  0.903  0.040  0.544  1.000
  S46  S2-  0.903  0.040  0.744  1.000
  S46  S2-  0.903  0.040  0.944  1.000
  S46  S2-  0.903  0.240  0.144  1.000
  S46  S2-  0.903  0.240  0.344  1.000
  S46  S2-  0.903  0.240  0.544  1.000
  S46  S2-  0.903  0.240  0.744  1.000
  S46  S2-  0.903  0.240  0.944  1.000
  S46  S2-  0.903  0.440  0.144  1.000
  S46  S2-  0.903  0.440  0.344  1.000
  S46  S2-  0.903  0.440  0.544  1.000
  S46  S2-  0.903  0.440  0.744  1.000
  S46  S2-  0.903  0.440  0.944  1.000
  S46  S2-  0.903  0.640  0.144  1.000
  S46  S2-  0.903  0.640  0.344  1.000
  S46  S2-  0.903  0.640  0.544  1.000
  S46  S2-  0.903  0.640  0.744  1.000
  S46  S2-  0.903  0.640  0.944  1.000
  S46  S2-  0.903  0.840  0.144  1.000
  S46  S2-  0.903  0.840  0.344  1.000
  S46  S2-  0.903  0.840  0.544  1.000
  S46  S2-  0.903  0.840  0.744  1.000
  S46  S2-  0.903  0.840  0.944  1.000
  S46  S2-  0.103  0.040  0.144  1.000
  S46  S2-  0.103  0.040  0.344  1.000
  S46  S2-  0.103  0.040  0.544  1.000
  S46  S2-  0.103  0.040  0.744  1.000
  S46  S2-  0.103  0.040  0.944  1.000
  S46  S2-  0.103  0.240  0.144  1.000
  S46  S2-  0.103  0.240  0.344  1.000
  S46  S2-  0.103  0.240  0.544  1.000
  S46  S2-  0.103  0.240  0.744  1.000
  S46  S2-  0.103  0.240  0.944  1.000
  S46  S2-  0.103  0.440  0.144  1.000
  S46  S2-  0.103  0.440  0.344  1.000
  S46  S2-  0.103  0.440  0.544  1.000
  S46  S2-  0.103  0.440  0.744  1.000
  S46  S2-  0.103  0.440  0.944  1.000
  S46  S2-  0.103  0.640  0.144  1.000
  S46  S2-  0.103  0.640  0.344  1.000
  S46  S2-  0.103  0.640  0.544  1.000
  S46  S2-  0.103  0.640  0.744  1.000
  S46  S2-  0.103  0.640  0.944  1.000
  S46  S2-  0.103  0.840  0.144  1.000
  S46  S2-  0.103  0.840  0.344  1.000
  S46  S2-  0.103  0.840  0.544  1.000
  S46  S2-  0.103  0.840  0.744  1.000
  S46  S2-  0.103  0.840  0.944  1.000
  S46  S2-  0.303  0.040  0.144  1.000
  S46  S2-  0.303  0.040  0.344  1.000
  S46  S2-  0.303  0.040  0.544  1.000
  S47  S2-  0.298  0.159  0.741  1.000
  S47  S2-  0.298  0.159  0.941  1.000
  S47  S2-  0.298  0.359  0.141  1.000
  S47  S2-  0.298  0.359  0.341  1.000
  S47  S2-  0.298  0.359  0.541  1.000
  S47  S2-  0.298  0.359  0.741  1.000
  S47  S2-  0.298  0.359  0.941  1.000
  S47  S2-  0.298  0.559  0.141  1.000
  S47  S2-  0.298  0.559  0.341  1.000
  S47  S2-  0.298  0.559  0.541  1.000
  S47  S2-  0.298  0.559  0.741  1.000
  S47  S2-  0.298  0.559  0.941  1.000
  S47  S2-  0.298  0.759  0.141  1.000
  S47  S2-  0.298  0.759  0.341  1.000
  S47  S2-  0.298  0.759  0.541  1.000
  S47  S2-  0.298  0.759  0.741  1.000
  S47  S2-  0.298  0.759  0.941  1.000
  S47  S2-  0.298  0.959  0.141  1.000
  S47  S2-  0.298  0.959  0.341  1.000
  S47  S2-  0.298  0.959  0.541  1.000
  S47  S2-  0.298  0.959  0.741  1.000
  S47  S2-  0.298  0.959  0.941  1.000
  S47  S2-  0.498  0.159  0.141  1.000
  S47  S2-  0.498  0.159  0.341  1.000
  S47  S2-  0.498  0.159  0.541  1.000
  S47  S2-  0.498  0.159  0.741  1.000
  S47  S2-  0.498  0.159  0.941  1.000
  S47  S2-  0.498  0.359  0.141  1.000
  S47  S2-  0.498  0.359  0.341  1.000
  S47  S2-  0.498  0.359  0.541  1.000
  S47  S2-  0.498  0.359  0.741  1.000
  S47  S2-  0.498  0.359  0.941  1.000
  S47  S2-  0.498  0.559  0.141  1.000
  S47  S2-  0.498  0.559  0.341  1.000
  S47  S2-  0.498  0.559  0.541  1.000
  S47  S2-  0.498  0.559  0.741  1.000
  S47  S2-  0.498  0.559  0.941  1.000
  S47  S2-  0.498  0.759  0.141  1.000
  S47  S2-  0.498  0.759  0.341  1.000
  S47  S2-  0.498  0.759  0.541  1.000
  S47  S2-  0.498  0.759  0.741  1.000
  S47  S2-  0.498  0.759  0.941  1.000
  S47  S2-  0.498  0.959  0.141  1.000
  S47  S2-  0.498  0.959  0.341  1.000
  S47  S2-  0.498  0.959  0.541  1.000
  S47  S2-  0.498  0.959  0.741  1.000
  S47  S2-  0.498  0.959  0.941  1.000
  S47  S2-  0.698  0.159  0.141  1.000
  S47  S2-  0.698  0.159  0.341  1.000
  S47  S2-  0.698  0.159  0.541  1.000
  S47  S2-  0.698  0.159  0.741  1.000
  S47  S2-  0.698  0.159  0.941  1.000
  S47  S2-  0.698  0.359  0.141  1.000
  S47  S2-  0.698  0.359  0.341  1.000
  S47  S2-  0.698  0.359  0.541  1.000
  S47  S2-  0.698  0.359  0.741  1.000
  S47  S2-  0.698  0.359  0.941  1.000
  S47  S2-  0.698  0.559  0.141  1.000
  S47  S2-  0.698  0.559  0.341  1.000
  S47  S2-  0.698  0.559  0.541  1.000
  S47  S2-  0.698  0.559  0.741  1.000
  S47  S2-  0.698  0.559  0.941  1.000
  S47  S2-  0.698  0.759  0.141  1.000
  S47  S2-  0.698  0.759  0.341  1.000
  S47  S2-  0.698  0.759  0.541  1.000
  S47  S2-  0.698  0.759  0.741  1.000
  S47  S2-  0.698  0.759  0.941  1.000
  S47  S2-  0.698  0.959  0.141  1.000
  S47  S2-  0.698  0.959  0.341  1.000
  S47  S2-  0.698  0.959  0.541  1.000
  S47  S2-  0.698  0.959  0.741  1.000
  S47  S2-  0.698  0.959  0.941  1.000
  S47  S2-  0.898  0.159  0.141  1.000
  S47  S2-  0.898  0.159  0.341  1.000
  S47  S2-  0.898  0.159  0.541  1.000
  S47  S2-  0.898  0.159  0.741  1.000
  S47  S2-  0.898  0.159  0.941  1.000
  S47  S2-  0.898  0.359  0.141  1.000
  S47  S2-  0.898  0.359  0.341  1.000
  S47  S2-  0.898  0.359  0.541  1.000
  S47  S2-  0.898  0.359  0.741  1.000
  S47  S2-  0.898  0.359  0.941  1.000
  S47  S2-  0.898  0.559  0.141  1.000
  S47  S2-  0.898  0.559  0.341  1.000
  S47  S2-  0.898  0.559  0.541  1.000
  S47  S2-  0.898  0.559  0.741  1.000
  S47  S2-  0.898  0.559  0.941  1.000
  S47  S2-  0.898  0.759  0.141  1.000
  S47  S2-  0.898  0.759  0.341  1.000
  S47  S2-  0.898  0.759  0.541  1.000
  S47  S2-  0.898  0.759  0.741  1.000
  S47  S2-  0.898  0.759  0.941  1.000
  S47  S2-  0.898  0.959  0.141  1.000
  S47  S2-  0.898  0.959  0.341  1.000
  S47  S2-  0.898  0.959  0.541  1.000
  S47  S2-  0.898  0.959  0.741  1.000
  S47  S2-  0.898  0.959  0.941  1.000
  S47  S2-  0.098  0.159  0.141  1.000
  S47  S2-  0.098  0.159  0.341  1.000
  S47  S2-  0.098  0.159  0.541  1.000
  S47  S2-  0.098  0.159  0.741  1.000
  S47  S2-  0.098  0.159  0.941  1.000
  S47  S2-  0.098  0.359  0.141  1.000
  S47  S2-  0.098  0.359  0.341  1.000
  S47  S2-  0.098  0.359  0.541  1.000
  S47  S2-  0.098  0.359  0.741  1.000
  S47  S2-  0.098  0.359  0.941  1.000
  S47  S2-  0.098  0.559  0.141  1.000
  S47  S2-  0.098  0.559  0.341  1.000
  S47  S2-  0.098  0.559  0.541  1.000
  S47  S2-  0.098  0.559  0.741  1.000
  S47  S2-  0.098  0.559  0.941  1.000
  S47  S2-  0.098  0.759  0.141  1.000
  S47  S2-  0.098  0.759  0.341  1.000
  S47  S2-  0.098  0.759  0.541  1.000
  S47  S2-  0.098  0.759  0.741  1.000
  S47  S2-  0.098  0.759  0.941  1.000
  S47  S2-  0.098  0.959  0.141  1.000
  S47  S2-  0.098  0.959  0.341  1.000
  S47  S2-  0.098  0.959  0.541  1.000
  S47  S2-  0.098  0.959  0.741  1.000
  S47  S2-  0.098  0.959  0.941  1.000
  S47  S2-  0.298  0.159  0.141  1.000
  S47  S2-  0.298  0.159  0.341  1.000
  S47  S2-  0.298  0.159  0.541  1.000
  S48  S2-  0.337  0.003  0.644  1.000
  S48  S2-  0.337  0.003  0.844  1.000
  S48  S2-  0.337  0.203  0.044  1.000
  S48  S2-  0.337  0.203  0.244  1.000
  S48  S2-  0.337  0.203  0.444  1.000
  S48  S2-  0.337  0.203  0.644  1.000
  S48  S2-  0.337  0.203  0.844  1.000
  S48  S2-  0.337  0.403  0.044  1.000
  S48  S2-  0.337  0.403  0.244  1.000
  S48  S2-  0.337  0.403  0.444  1.000
  S48  S2-  0.337  0.403  0.644  1.000
  S48  S2-  0.337  0.403  0.844  1.000
  S48  S2-  0.337  0.603  0.044  1.000
  S48  S2-  0.337  0.603  0.244  1.000
  S48  S2-  0.337  0.603  0.444  1.000
  S48  S2-  0.337  0.603  0.644  1.000
  S48  S2-  0.337  0.603  0.844  1.000
  S48  S2-  0.337  0.803  0.044  1.000
  S48  S2-  0.337  0.803  0.244  1.000
  S48  S2-  0.337  0.803  0.444  1.000
  S48  S2-  0.337  0.803  0.644  1.000
  S48  S2-  0.337  0.803  0.844  1.000
  S48  S2-  0.537  0.003  0.044  1.000
  S48  S2-  0.537  0.003  0.244  1.000
  S48  S2-  0.537  0.003  0.444  1.000
  S48  S2-  0.537  0.003  0.644  1.000
  S48  S2-  0.537  0.003  0.844  1.000
  S48  S2-  0.537  0.203  0.044  1.000
  S48  S2-  0.537  0.203  0.244  1.000
  S48  S2-  0.537  0.203  0.444  1.000
  S48  S2-  0.537  0.203  0.644  1.000
  S48  S2-  0.537  0.203  0.844  1.000
  S48  S2-  0.537  0.403  0.044  1.000
  S48  S2-  0.537  0.403  0.244  1.000
  S48  S2-  0.537  0.403  0.444  1.000
  S48  S2-  0.537  0.403  0.644  1.000
  S48  S2-  0.537  0.403  0.844  1.000
  S48  S2-  0.537  0.603  0.044  1.000
  S48  S2-  0.537  0.603  0.244  1.000
  S48  S2-  0.537  0.603  0.444  1.000
  S48  S2-  0.537  0.603  0.644  1.000
  S48  S2-  0.537  0.603  0.844  1.000
  S48  S2-  0.537  0.803  0.044  1.000
  S48  S2-  0.537  0.803  0.244  1.000
  S48  S2-  0.537  0.803  0.444  1.000
  S48  S2-  0.537  0.803  0.644  1.000
  S48  S2-  0.537  0.803  0.844  1.000
  S48  S2-  0.737  0.003  0.044  1.000
  S48  S2-  0.737  0.003  0.244  1.000
  S48  S2-  0.737  0.003  0.444  1.000
  S48  S2-  0.737  0.003  0.644  1.000
  S48  S2-  0.737  0.003  0.844  1.000
  S48  S2-  0.737  0.203  0.044  1.000
  S48  S2-  0.737  0.203  0.244  1.000
  S48  S2-  0.737  0.203  0.444  1.000
  S48  S2-  0.737  0.203  0.644  1.000
  S48  S2-  0.737  0.203  0.844  1.000
  S48  S2-  0.737  0.403  0.044  1.000
  S48  S2-  0.737  0.403  0.244  1.000
  S48  S2-  0.737  0.403  0.444  1.000
  S48  S2-  0.737  0.403  0.644  1.000
  S48  S2-  0.737  0.403  0.844  1.000
  S48  S2-  0.737  0.603  0.044  1.000
  S48  S2-  0.737  0.603  0.244  1.000
  S48  S2-  0.737  0.603  0.444  1.000
  S48  S2-  0.737  0.603  0.644  1.000
  S48  S2-  0.737  0.603  0.844  1.000
  S48  S2-  0.737  0.803  0.044  1.000
  S48  S2-  0.737  0.803  0.244  1.000
  S48  S2-  0.737  0.803  0.444  1.000
  S48  S2-  0.737  0.803  0.644  1.000
  S48  S2-  0.737  0.803  0.844  1.000
  S48  S2-  0.937  0.003  0.044  1.000
  S48  S2-  0.937  0.003  0.244  1.000
  S48  S2-  0.937  0.003  0.444  1.000
  S48  S2-  0.937  0.003  0.644  1.000
  S48  S2-  0.937  0.003  0.844  1.000
  S48  S2-  0.937  0.203  0.044  1.000
  S48  S2-  0.937  0.203  0.244  1.000
  S48  S2-  0.937  0.203  0.444  1.000
  S48  S2-  0.937  0.203  0.644  1.000
  S48  S2-  0.937  0.203  0.844  1.000
  S48  S2-  0.937  0.403  0.044  1.000
  S48  S2-  0.937  0.403  0.244  1.000
  S48  S2-  0.937  0.403  0.444  1.000
  S48  S2-  0.937  0.403  0.644  1.000
  S48  S2-  0.937  0.403  0.844  1.000
  S48  S2-  0.937  0.603  0.044  1.000
  S48  S2-  0.937  0.603  0.244  1.000
  S48  S2-  0.937  0.603  0.444  1.000
  S48  S2-  0.937  0.603  0.644  1.000
  S48  S2-  0.937  0.603  0.844  1.000
  S48  S2-  0.937  0.803  0.044  1.000
  S48  S2-  0.937  0.803  0.244  1.000
  S48  S2-  0.937  0.803  0.444  1.000
  S48  S2-  0.937  0.803  0.644  1.000
  S48  S2-  0.937  0.803  0.844  1.000
  S48  S2-  0.137  0.003  0.044  1.000
  S48  S2-  0.137  0.003  0.244  1.000
  S48  S2-  0.137  0.003  0.444  1.000
  S48  S2-  0.137  0.003  0.644  1.000
  S48  S2-  0.137  0.003  0.844  1.000
  S48  S2-  0.137  0.203  0.044  1.000
  S48  S2-  0.137  0.203  0.244  1.000
  S48  S2-  0.137  0.203  0.444  1.000
  S48  S2-  0.137  0.203  0.644  1.000
  S48  S2-  0.137  0.203  0.844  1.000
  S48  S2-  0.137  0.403  0.044  1.000
  S48  S2-  0.137  0.403  0.244  1.000
  S48  S2-  0.137  0.403  0.444  1.000
  S48  S2-  0.137  0.403  0.644  1.000
  S48  S2-  0.137  0.403  0.844  1.000
  S48  S2-  0.137  0.603  0.044  1.000
  S48  S2-  0.137  0.603  0.244  1.000
  S48  S2-  0.137  0.603  0.444  1.000
  S48  S2-  0.137  0.603  0.644  1.000
  S48  S2-  0.137  0.603  0.844  1.000
  S48  S2-  0.137  0.803  0.044  1.000
  S48  S2-  0.137  0.803  0.244  1.000
  S48  S2-  0.137  0.803  0.444  1.000
  S48  S2-  0.137  0.803  0.644  1.000
  S48  S2-  0.137  0.803  0.844  1.000
  S48  S2-  0.337  0.003  0.044  1.000
  S48  S2-  0.337  0.003  0.244  1.000
  S48  S2-  0.337  0.003  0.444  1.000
  S49  S2-  0.258  0.006  0.644  1.000
  S49  S2-  0.258  0.006  0.844  1.000
  S49  S2-  0.258  0.206  0.044  1.000
  S49  S2-  0.258  0.206  0.244  1.000
  S49  S2-  0.258  0.206  0.444  1.000
  S49  S2-  0.258  0.206  0.644  1.000
  S49  S2-  0.258  0.206  0.844  1.000
  S49  S2-  0.258  0.406  0.044  1.000
  S49  S2-  0.258  0.406  0.244  1.000
  S49  S2-  0.258  0.406  0.444  1.000
  S49  S2-  0.258  0.406  0.644  1.000
  S49  S2-  0.258  0.406  0.844  1.000
  S49  S2-  0.258  0.606  0.044  1.000
  S49  S2-  0.258  0.606  0.244  1.000
  S49  S2-  0.258  0.606  0.444  1.000
  S49  S2-  0.258  0.606  0.644  1.000
  S49  S2-  0.258  0.606  0.844  1.000
  S49  S2-  0.258  0.806  0.044  1.000
  S49  S2-  0.258  0.806  0.244  1.000
  S49  S2-  0.258  0.806  0.444  1.000
  S49  S2-  0.258  0.806  0.644  1.000
  S49  S2-  0.258  0.806  0.844  1.000
  S49  S2-  0.458  0.006  0.044  1.000
  S49  S2-  0.458  0.006  0.244  1.000
  S49  S2-  0.458  0.006  0.444  1.000
  S49  S2-  0.458  0.006  0.644  1.000
  S49  S2-  0.458  0.006  0.844  1.000
  S49  S2-  0.458  0.206  0.044  1.000
  S49  S2-  0.458  0.206  0.244  1.000
  S49  S2-  0.458  0.206  0.444  1.000
  S49  S2-  0.458  0.206  0.644  1.000
  S49  S2-  0.458  0.206  0.844  1.000
  S49  S2-  0.458  0.406  0.044  1.000
  S49  S2-  0.458  0.406  0.244  1.000
  S49  S2-  0.458  0.406  0.444  1.000
  S49  S2-  0.458  0.406  0.644  1.000
  S49  S2-  0.458  0.406  0.844  1.000
  S49  S2-  0.458  0.606  0.044  1.000
  S49  S2-  0.458  0.606  0.244  1.000
  S49  S2-  0.458  0.606  0.444  1.000
  S49  S2-  0.458  0.606  0.644  1.000
  S49  S2-  0.458  0.606  0.844  1.000
  S49  S2-  0.458  0.806  0.044  1.000
  S49  S2-  0.458  0.806  0.244  1.000
  S49  S2-  0.458  0.806  0.444  1.000
  S49  S2-  0.458  0.806  0.644  1.000
  S49  S2-  0.458  0.806  0.844  1.000
  S49  S2-  0.658  0.006  0.044  1.000
  S49  S2-  0.658  0.006  0.244  1.000
  S49  S2-  0.658  0.006  0.444  1.000
  S49  S2-  0.658  0.006  0.644  1.000
  S49  S2-  0.658  0.006  0.844  1.000
  S49  S2-  0.658  0.206  0.044  1.000
  S49  S2-  0.658  0.206  0.244  1.000
  S49  S2-  0.658  0.206  0.444  1.000
  S49  S2-  0.658  0.206  0.644  1.000
  S49  S2-  0.658  0.206  0.844  1.000
  S49  S2-  0.658  0.406  0.044  1.000
  S49  S2-  0.658  0.406  0.244  1.000
  S49  S2-  0.658  0.406  0.444  1.000
  S49  S2-  0.658  0.406  0.644  1.000
  S49  S2-  0.658  0.406  0.844  1.000
  S49  S2-  0.658  0.606  0.044  1.000
  S49  S2-  0.658  0.606  0.244  1.000
  S49  S2-  0.658  0.606  0.444  1.000
  S49  S2-  0.658  0.606  0.644  1.000
  S49  S2-  0.658  0.606  0.844  1.000
  S49  S2-  0.658  0.806  0.044  1.000
  S49  S2-  0.658  0.806  0.244  1.000
  S49  S2-  0.658  0.806  0.444  1.000
  S49  S2-  0.658  0.806  0.644  1.000
  S49  S2-  0.658  0.806  0.844  1.000
  S49  S2-  0.858  0.006  0.044  1.000
  S49  S2-  0.858  0.006  0.244  1.000
  S49  S2-  0.858  0.006  0.444  1.000
  S49  S2-  0.858  0.006  0.644  1.000
  S49  S2-  0.858  0.006  0.844  1.000
  S49  S2-  0.858  0.206  0.044  1.000
  S49  S2-  0.858  0.206  0.244  1.000
  S49  S2-  0.858  0.206  0.444  1.000
  S49  S2-  0.858  0.206  0.644  1.000
  S49  S2-  0.858  0.206  0.844  1.000
  S49  S2-  0.858  0.406  0.044  1.000
  S49  S2-  0.858  0.406  0.244  1.000
  S49  S2-  0.858  0.406  0.444  1.000
  S49  S2-  0.858  0.406  0.644  1.000
  S49  S2-  0.858  0.406  0.844  1.000
  S49  S2-  0.858  0.606  0.044  1.000
  S49  S2-  0.858  0.606  0.244  1.000
  S49  S2-  0.858  0.606  0.444  1.000
  S49  S2-  0.858  0.606  0.644  1.000
  S49  S2-  0.858  0.606  0.844  1.000
  S49  S2-  0.858  0.806  0.044  1.000
  S49  S2-  0.858  0.806  0.244  1.000
  S49  S2-  0.858  0.806  0.444  1.000
  S49  S2-  0.858  0.806  0.644  1.000
  S49  S2-  0.858  0.806  0.844  1.000
  S49  S2-  0.058  0.006  0.044  1.000
  S49  S2-  0.058  0.006  0.244  1.000
  S49  S2-  0.058  0.006  0.444  1.000
  S49  S2-  0.058  0.006  0.644  1.000
  S49  S2-  0.058  0.006  0.844  1.000
  S49  S2-  0.058  0.206  0.044  1.000
  S49  S2-  0.058  0.206  0.244  1.000
  S49  S2-  0.058  0.206  0.444  1.000
  S49  S2-  0.058  0.206  0.644  1.000
  S49  S2-  0.058  0.206  0.844  1.000
  S49  S2-  0.058  0.406  0.044  1.000
  S49  S2-  0.058  0.406  0.244  1.000
  S49  S2-  0.058  0.406  0.444  1.000
  S49  S2-  0.058  0.406  0.644  1.000
  S49  S2-  0.058  0.406  0.844  1.000
  S49  S2-  0.058  0.606  0.044  1.000
  S49  S2-  0.058  0.606  0.244  1.000
  S49  S2-  0.058  0.606  0.444  1.000
  S49  S2-  0.058  0.606  0.644  1.000
  S49  S2-  0.058  0.606  0.844  1.000
  S49  S2-  0.058  0.806  0.044  1.000
  S49  S2-  0.058  0.806  0.244  1.000
  S49  S2-  0.058  0.806  0.444  1.000
  S49  S2-  0.058  0.806  0.644  1.000
  S49  S2-  0.058  0.806  0.844  1.000
  S49  S2-  0.258  0.006  0.044  1.000
  S49  S2-  0.258  0.006  0.244  1.000
  S49  S2-  0.258  0.006  0.444  1.000

#end of data
