data_generated-by-softBV

_chemical_name_systematic         ''
_cell_length_a                    42.950
_cell_length_b                    44.398
_cell_length_c                    64.875
_cell_angle_alpha                 91.984
_cell_angle_beta                  90.643
_cell_angle_gamma                 90.249
_cell_volume                      123624.745
_cell_formula_units_Z             0
_symmetry_space_group_name_H-M    'P 1'
_symmetry_Int_Tables_number       1

loop_
  _symmetry_equiv_pos_site_id
  _symmetry_equiv_pos_as_xyz
    1    'x, y, z'

loop_
  _atom_type_symbol
  _atom_type_oxidation_number
  Li1+     1

loop_
  _atom_site_label
  _atom_site_type_symbol
  _atom_site_fract_x
  _atom_site_fract_y
  _atom_site_fract_z
  _atom_site_occupancy
  Li0  Li1+  0.198  0.698  0.586  0.001
  Li0  Li1+  0.598  0.498  0.386  0.001
  Li0  Li1+  0.598  0.498  0.986  0.001
  Li0  Li1+  0.598  0.898  0.586  0.001
  Li0  Li1+  0.998  0.298  0.986  0.001
  Li1  Li1+  0.400  0.496  0.887  0.001
  Li1  Li1+  0.400  0.096  0.088  0.001
  Li1  Li1+  0.400  0.496  0.088  0.001
  Li1  Li1+  -0.000  0.496  0.887  0.001
  Li1  Li1+  0.800  0.896  0.287  0.001
  Li2  Li1+  0.700  0.196  0.312  0.001
  Li2  Li1+  0.100  0.996  0.113  0.001
  Li2  Li1+  0.900  0.996  0.113  0.001
  Li2  Li1+  0.300  0.596  0.712  0.001
  Li3  Li1+  0.098  0.000  0.812  0.001
  Li3  Li1+  0.098  0.600  0.613  0.001
  Li3  Li1+  0.898  0.800  0.212  0.001
  Li3  Li1+  0.898  0.800  0.812  0.001
  Li4  Li1+  0.852  0.056  0.232  0.001
  Li4  Li1+  0.852  0.056  0.832  0.001
  Li4  Li1+  0.052  0.856  0.832  0.001
  Li4  Li1+  0.452  0.056  0.032  0.001
  Li4  Li1+  0.052  0.056  0.432  0.001
  Li4  Li1+  0.252  0.656  0.032  0.001
  Li4  Li1+  0.652  0.056  0.632  0.001
  Li5  Li1+  0.146  0.148  0.047  0.001
  Li5  Li1+  0.546  0.148  0.647  0.001
  Li5  Li1+  0.546  0.748  0.847  0.001
  Li5  Li1+  0.346  0.548  0.247  0.001
  Li5  Li1+  0.346  0.548  0.647  0.001
  Li5  Li1+  0.546  0.548  0.447  0.001
  Li5  Li1+  0.746  0.948  0.847  0.001
  Li6  Li1+  0.246  0.156  0.950  0.001
  Li6  Li1+  0.646  0.756  0.550  0.001
  Li6  Li1+  0.246  0.356  0.750  0.001
  Li6  Li1+  0.046  0.556  0.950  0.001
  Li6  Li1+  0.446  0.356  0.150  0.001
  Li7  Li1+  0.450  0.550  0.849  0.001
  Li7  Li1+  0.850  0.550  0.049  0.001
  Li7  Li1+  0.850  0.150  0.049  0.001
  Li8  Li1+  0.752  0.444  0.869  0.001
  Li8  Li1+  0.552  0.644  0.069  0.001
  Li8  Li1+  0.752  0.244  0.669  0.001
  Li9  Li1+  0.294  0.300  0.549  0.001
  Li9  Li1+  0.094  0.300  0.349  0.001
  Li9  Li1+  0.894  0.100  0.949  0.001
  Li10  Li1+  0.046  0.446  0.272  0.001
  Li10  Li1+  0.246  0.646  0.472  0.001
  Li10  Li1+  0.646  0.046  0.672  0.001
  Li11  Li1+  0.950  0.254  0.971  0.001
  Li11  Li1+  0.150  0.654  0.971  0.001
  Li11  Li1+  0.350  0.254  0.171  0.001
  Li12  Li1+  0.248  0.152  0.001  0.001
  Li12  Li1+  0.448  0.952  0.401  0.001
  Li12  Li1+  0.448  0.952  0.801  0.001
  Li12  Li1+  0.848  0.352  0.801  0.001
  Li12  Li1+  0.248  0.152  0.801  0.001
  Li13  Li1+  0.548  0.650  0.426  0.001
  Li14  Li1+  0.152  0.146  0.740  0.001
  Li14  Li1+  0.552  0.946  0.740  0.001
  Li14  Li1+  0.152  0.946  0.740  0.001
  Li14  Li1+  0.552  0.946  0.940  0.001
  Li14  Li1+  0.152  0.346  0.940  0.001
  Li14  Li1+  0.152  0.146  0.140  0.001
  Li14  Li1+  0.352  0.146  0.340  0.001
  Li14  Li1+  0.752  0.146  0.940  0.001
  Li14  Li1+  0.952  0.546  0.340  0.001
  Li14  Li1+  0.952  0.546  0.940  0.001
  Li14  Li1+  0.552  0.746  0.340  0.001
  Li14  Li1+  0.952  0.946  0.140  0.001
  Li14  Li1+  0.552  0.346  0.940  0.001
  Li14  Li1+  0.152  0.546  0.540  0.001
  Li14  Li1+  0.152  0.546  0.740  0.001
  Li15  Li1+  0.442  0.454  0.383  0.001
  Li15  Li1+  0.242  0.254  0.983  0.001
  Li15  Li1+  0.442  0.854  0.583  0.001
  Li15  Li1+  0.042  0.054  0.583  0.001
  Li15  Li1+  0.842  0.854  0.383  0.001
  Li15  Li1+  0.242  0.054  0.383  0.001
  Li15  Li1+  0.842  0.454  0.983  0.001
  Li16  Li1+  0.950  0.952  0.003  0.001
  Li16  Li1+  0.350  0.552  0.003  0.001
  Li16  Li1+  0.950  0.952  0.203  0.001
  Li16  Li1+  0.950  0.952  0.403  0.001
  Li16  Li1+  0.750  0.352  0.203  0.001
  Li17  Li1+  0.850  0.540  0.294  0.001
  Li17  Li1+  0.250  0.940  0.494  0.001
  Li17  Li1+  0.450  0.740  0.094  0.001
  Li17  Li1+  0.850  0.140  0.094  0.001
  Li17  Li1+  0.850  0.940  0.094  0.001
  Li17  Li1+  0.050  0.340  0.894  0.001
  Li17  Li1+  0.050  0.140  0.494  0.001
  Li18  Li1+  0.554  0.644  0.522  0.001
  Li18  Li1+  0.954  0.644  0.922  0.001
  Li18  Li1+  0.154  0.244  0.122  0.001
  Li18  Li1+  0.154  0.444  0.322  0.001
  Li19  Li1+  0.848  0.642  0.728  0.001
  Li19  Li1+  0.648  0.842  0.128  0.001
  Li19  Li1+  0.248  0.642  0.928  0.001
  Li19  Li1+  0.048  0.842  0.128  0.001
  Li_i1  Li1+  0.379  0.200  0.817  0.001
  Li_i1  Li1+  0.094  0.552  0.181  0.001
  Li_i1  Li1+  0.294  0.352  0.981  0.001
  Li_i1  Li1+  0.379  0.400  0.017  0.001
  Li_i1  Li1+  0.294  0.552  0.181  0.001
  Li_i1  Li1+  0.179  0.400  0.217  0.001
  Li_i1  Li1+  0.379  0.400  0.217  0.001
  Li_i1  Li1+  0.179  -0.000  0.617  0.001
  Li_i1  Li1+  0.294  0.552  0.381  0.001
  Li_i1  Li1+  0.379  0.400  0.417  0.001
  Li_i1  Li1+  0.294  0.552  0.581  0.001
  Li_i1  Li1+  0.379  0.400  0.617  0.001
  Li_i1  Li1+  0.094  0.152  0.781  0.001
  Li_i1  Li1+  0.094  0.552  0.381  0.001
  Li_i1  Li1+  0.294  0.552  0.781  0.001
  Li_i1  Li1+  0.379  0.400  0.817  0.001
  Li_i1  Li1+  0.294  0.552  0.981  0.001
  Li_i1  Li1+  0.379  0.600  0.017  0.001
  Li_i1  Li1+  0.179  0.400  0.417  0.001
  Li_i1  Li1+  0.294  0.752  0.181  0.001
  Li_i1  Li1+  0.379  0.600  0.217  0.001
  Li_i1  Li1+  0.294  0.752  0.381  0.001
  Li_i1  Li1+  0.379  0.600  0.417  0.001
  Li_i1  Li1+  0.094  0.552  0.581  0.001
  Li_i1  Li1+  0.294  0.752  0.581  0.001
  Li_i1  Li1+  0.379  0.600  0.617  0.001
  Li_i1  Li1+  0.294  0.752  0.781  0.001
  Li_i1  Li1+  0.379  0.600  0.817  0.001
  Li_i1  Li1+  0.094  0.152  0.381  0.001
  Li_i1  Li1+  0.294  0.752  0.981  0.001
  Li_i1  Li1+  0.379  0.800  0.017  0.001
  Li_i1  Li1+  0.294  0.952  0.181  0.001
  Li_i1  Li1+  0.379  0.800  0.217  0.001
  Li_i1  Li1+  0.294  0.952  0.381  0.001
  Li_i1  Li1+  0.379  0.800  0.417  0.001
  Li_i1  Li1+  0.179  0.400  0.617  0.001
  Li_i1  Li1+  0.294  0.952  0.581  0.001
  Li_i1  Li1+  0.379  0.800  0.617  0.001
  Li_i1  Li1+  0.294  0.952  0.781  0.001
  Li_i1  Li1+  0.379  0.800  0.817  0.001
  Li_i1  Li1+  0.294  0.952  0.981  0.001
  Li_i1  Li1+  0.579  0.000  0.017  0.001
  Li_i1  Li1+  0.094  0.552  0.781  0.001
  Li_i1  Li1+  0.179  0.000  0.817  0.001
  Li_i1  Li1+  0.494  0.152  0.181  0.001
  Li_i1  Li1+  0.579  -0.000  0.217  0.001
  Li_i1  Li1+  0.494  0.152  0.381  0.001
  Li_i1  Li1+  0.579  -0.000  0.417  0.001
  Li_i1  Li1+  0.494  0.152  0.581  0.001
  Li_i1  Li1+  0.579  -0.000  0.617  0.001
  Li_i1  Li1+  0.179  0.400  0.817  0.001
  Li_i1  Li1+  0.494  0.152  0.781  0.001
  Li_i1  Li1+  0.579  0.000  0.817  0.001
  Li_i1  Li1+  0.494  0.152  0.981  0.001
  Li_i1  Li1+  0.579  0.200  0.017  0.001
  Li_i1  Li1+  0.179  -0.000  0.417  0.001
  Li_i1  Li1+  0.494  0.352  0.181  0.001
  Li_i1  Li1+  0.579  0.200  0.217  0.001
  Li_i1  Li1+  0.494  0.352  0.381  0.001
  Li_i1  Li1+  0.579  0.200  0.417  0.001
  Li_i1  Li1+  0.494  0.352  0.581  0.001
  Li_i1  Li1+  0.579  0.200  0.617  0.001
  Li_i1  Li1+  0.494  0.352  0.781  0.001
  Li_i1  Li1+  0.579  0.200  0.817  0.001
  Li_i1  Li1+  0.494  0.352  0.981  0.001
  Li_i1  Li1+  0.094  0.152  0.981  0.001
  Li_i1  Li1+  0.579  0.400  0.017  0.001
  Li_i1  Li1+  0.094  0.552  0.981  0.001
  Li_i1  Li1+  0.494  0.552  0.181  0.001
  Li_i1  Li1+  0.579  0.400  0.217  0.001
  Li_i1  Li1+  0.179  0.600  0.017  0.001
  Li_i1  Li1+  0.094  0.752  0.181  0.001
  Li_i1  Li1+  0.494  0.552  0.381  0.001
  Li_i1  Li1+  0.579  0.400  0.417  0.001
  Li_i1  Li1+  0.179  0.600  0.217  0.001
  Li_i1  Li1+  0.494  0.552  0.581  0.001
  Li_i1  Li1+  0.579  0.400  0.617  0.001
  Li_i1  Li1+  0.494  0.552  0.781  0.001
  Li_i1  Li1+  0.579  0.400  0.817  0.001
  Li_i1  Li1+  0.094  0.752  0.381  0.001
  Li_i1  Li1+  0.179  0.600  0.417  0.001
  Li_i1  Li1+  0.179  0.200  0.017  0.001
  Li_i1  Li1+  0.494  0.552  0.981  0.001
  Li_i1  Li1+  0.579  0.600  0.017  0.001
  Li_i1  Li1+  0.094  0.752  0.581  0.001
  Li_i1  Li1+  0.494  0.752  0.181  0.001
  Li_i1  Li1+  0.179  0.600  0.617  0.001
  Li_i1  Li1+  0.579  0.600  0.217  0.001
  Li_i1  Li1+  0.494  0.752  0.381  0.001
  Li_i1  Li1+  0.094  0.152  0.181  0.001
  Li_i1  Li1+  0.579  0.600  0.417  0.001
  Li_i1  Li1+  0.094  0.752  0.781  0.001
  Li_i1  Li1+  0.494  0.752  0.581  0.001
  Li_i1  Li1+  0.179  0.600  0.817  0.001
  Li_i1  Li1+  0.579  0.600  0.617  0.001
  Li_i1  Li1+  0.494  0.752  0.781  0.001
  Li_i1  Li1+  0.579  0.600  0.817  0.001
  Li_i1  Li1+  0.094  0.752  0.981  0.001
  Li_i1  Li1+  0.494  0.752  0.981  0.001
  Li_i1  Li1+  0.579  0.800  0.017  0.001
  Li_i1  Li1+  0.494  0.952  0.181  0.001
  Li_i1  Li1+  0.579  0.800  0.217  0.001
  Li_i1  Li1+  0.494  0.952  0.381  0.001
  Li_i1  Li1+  0.579  0.800  0.417  0.001
  Li_i1  Li1+  0.094  0.352  0.181  0.001
  Li_i1  Li1+  0.179  0.800  0.017  0.001
  Li_i1  Li1+  0.179  0.200  0.217  0.001
  Li_i1  Li1+  0.494  0.952  0.581  0.001
  Li_i1  Li1+  0.579  0.800  0.617  0.001
  Li_i1  Li1+  0.494  0.952  0.781  0.001
  Li_i1  Li1+  0.179  0.000  0.017  0.001
  Li_i1  Li1+  0.579  0.800  0.817  0.001
  Li_i1  Li1+  0.094  0.952  0.181  0.001
  Li_i1  Li1+  0.494  0.952  0.981  0.001
  Li_i1  Li1+  0.179  0.800  0.217  0.001
  Li_i1  Li1+  0.779  0.000  0.017  0.001
  Li_i1  Li1+  0.694  0.152  0.181  0.001
  Li_i1  Li1+  0.779  -0.000  0.217  0.001
  Li_i1  Li1+  0.094  0.952  0.381  0.001
  Li_i1  Li1+  0.694  0.152  0.381  0.001
  Li_i1  Li1+  0.779  -0.000  0.417  0.001
  Li_i1  Li1+  0.694  0.152  0.581  0.001
  Li_i1  Li1+  0.779  -0.000  0.617  0.001
  Li_i1  Li1+  0.179  0.800  0.417  0.001
  Li_i1  Li1+  0.094  0.952  0.581  0.001
  Li_i1  Li1+  0.694  0.152  0.781  0.001
  Li_i1  Li1+  0.779  0.000  0.817  0.001
  Li_i1  Li1+  0.694  0.152  0.981  0.001
  Li_i1  Li1+  0.179  0.800  0.617  0.001
  Li_i1  Li1+  0.779  0.200  0.017  0.001
  Li_i1  Li1+  0.694  0.352  0.181  0.001
  Li_i1  Li1+  0.779  0.200  0.217  0.001
  Li_i1  Li1+  0.694  0.352  0.381  0.001
  Li_i1  Li1+  0.094  0.952  0.781  0.001
  Li_i1  Li1+  0.779  0.200  0.417  0.001
  Li_i1  Li1+  0.694  0.352  0.581  0.001
  Li_i1  Li1+  0.779  0.200  0.617  0.001
  Li_i1  Li1+  0.694  0.352  0.781  0.001
  Li_i1  Li1+  0.094  0.352  0.381  0.001
  Li_i1  Li1+  0.779  0.200  0.817  0.001
  Li_i1  Li1+  0.694  0.352  0.981  0.001
  Li_i1  Li1+  0.779  0.400  0.017  0.001
  Li_i1  Li1+  0.694  0.552  0.181  0.001
  Li_i1  Li1+  0.779  0.400  0.217  0.001
  Li_i1  Li1+  0.694  0.552  0.381  0.001
  Li_i1  Li1+  0.779  0.400  0.417  0.001
  Li_i1  Li1+  0.694  0.552  0.581  0.001
  Li_i1  Li1+  0.779  0.400  0.617  0.001
  Li_i1  Li1+  0.694  0.552  0.781  0.001
  Li_i1  Li1+  0.779  0.400  0.817  0.001
  Li_i1  Li1+  0.694  0.552  0.981  0.001
  Li_i1  Li1+  0.179  0.800  0.817  0.001
  Li_i1  Li1+  0.779  0.600  0.017  0.001
  Li_i1  Li1+  0.694  0.752  0.181  0.001
  Li_i1  Li1+  0.779  0.600  0.217  0.001
  Li_i1  Li1+  0.694  0.752  0.381  0.001
  Li_i1  Li1+  0.779  0.600  0.417  0.001
  Li_i1  Li1+  0.179  0.200  0.417  0.001
  Li_i1  Li1+  0.694  0.752  0.581  0.001
  Li_i1  Li1+  0.779  0.600  0.617  0.001
  Li_i1  Li1+  0.694  0.752  0.781  0.001
  Li_i1  Li1+  0.779  0.600  0.817  0.001
  Li_i1  Li1+  0.694  0.752  0.981  0.001
  Li_i1  Li1+  0.779  0.800  0.017  0.001
  Li_i1  Li1+  0.094  0.952  0.981  0.001
  Li_i1  Li1+  0.694  0.952  0.181  0.001
  Li_i1  Li1+  0.779  0.800  0.217  0.001
  Li_i1  Li1+  0.694  0.952  0.381  0.001
  Li_i1  Li1+  0.779  0.800  0.417  0.001
  Li_i1  Li1+  0.694  0.952  0.581  0.001
  Li_i1  Li1+  0.779  0.800  0.617  0.001
  Li_i1  Li1+  0.694  0.952  0.781  0.001
  Li_i1  Li1+  0.779  0.800  0.817  0.001
  Li_i1  Li1+  0.379  0.000  0.017  0.001
  Li_i1  Li1+  0.694  0.952  0.981  0.001
  Li_i1  Li1+  0.979  0.000  0.017  0.001
  Li_i1  Li1+  0.094  0.352  0.581  0.001
  Li_i1  Li1+  0.294  0.152  0.181  0.001
  Li_i1  Li1+  0.894  0.152  0.181  0.001
  Li_i1  Li1+  0.979  -0.000  0.217  0.001
  Li_i1  Li1+  0.379  -0.000  0.217  0.001
  Li_i1  Li1+  0.894  0.152  0.381  0.001
  Li_i1  Li1+  0.979  -0.000  0.417  0.001
  Li_i1  Li1+  0.894  0.152  0.581  0.001
  Li_i1  Li1+  0.979  -0.000  0.617  0.001
  Li_i1  Li1+  0.894  0.152  0.781  0.001
  Li_i1  Li1+  0.979  0.000  0.817  0.001
  Li_i1  Li1+  0.179  0.200  0.617  0.001
  Li_i1  Li1+  0.294  0.152  0.381  0.001
  Li_i1  Li1+  0.894  0.152  0.981  0.001
  Li_i1  Li1+  0.979  0.200  0.017  0.001
  Li_i1  Li1+  0.894  0.352  0.181  0.001
  Li_i1  Li1+  0.979  0.200  0.217  0.001
  Li_i1  Li1+  0.894  0.352  0.381  0.001
  Li_i1  Li1+  0.979  0.200  0.417  0.001
  Li_i1  Li1+  0.894  0.352  0.581  0.001
  Li_i1  Li1+  0.979  0.200  0.617  0.001
  Li_i1  Li1+  0.894  0.352  0.781  0.001
  Li_i1  Li1+  0.979  0.200  0.817  0.001
  Li_i1  Li1+  0.094  0.352  0.781  0.001
  Li_i1  Li1+  0.379  -0.000  0.417  0.001
  Li_i1  Li1+  0.894  0.352  0.981  0.001
  Li_i1  Li1+  0.294  0.152  0.581  0.001
  Li_i1  Li1+  0.979  0.400  0.017  0.001
  Li_i1  Li1+  0.379  -0.000  0.617  0.001
  Li_i1  Li1+  0.894  0.552  0.181  0.001
  Li_i1  Li1+  0.979  0.400  0.217  0.001
  Li_i1  Li1+  0.294  0.152  0.781  0.001
  Li_i1  Li1+  0.894  0.552  0.381  0.001
  Li_i1  Li1+  0.379  0.000  0.817  0.001
  Li_i1  Li1+  0.979  0.400  0.417  0.001
  Li_i1  Li1+  0.894  0.552  0.581  0.001
  Li_i1  Li1+  0.979  0.400  0.617  0.001
  Li_i1  Li1+  0.894  0.552  0.781  0.001
  Li_i1  Li1+  0.979  0.400  0.817  0.001
  Li_i1  Li1+  0.179  0.200  0.817  0.001
  Li_i1  Li1+  0.894  0.552  0.981  0.001
  Li_i1  Li1+  0.179  -0.000  0.217  0.001
  Li_i1  Li1+  0.979  0.600  0.017  0.001
  Li_i1  Li1+  0.894  0.752  0.181  0.001
  Li_i1  Li1+  0.979  0.600  0.217  0.001
  Li_i1  Li1+  0.894  0.752  0.381  0.001
  Li_i1  Li1+  0.979  0.600  0.417  0.001
  Li_i1  Li1+  0.894  0.752  0.581  0.001
  Li_i1  Li1+  0.979  0.600  0.617  0.001
  Li_i1  Li1+  0.294  0.152  0.981  0.001
  Li_i1  Li1+  0.894  0.752  0.781  0.001
  Li_i1  Li1+  0.979  0.600  0.817  0.001
  Li_i1  Li1+  0.379  0.200  0.017  0.001
  Li_i1  Li1+  0.894  0.752  0.981  0.001
  Li_i1  Li1+  0.979  0.800  0.017  0.001
  Li_i1  Li1+  0.294  0.352  0.181  0.001
  Li_i1  Li1+  0.094  0.352  0.981  0.001
  Li_i1  Li1+  0.894  0.952  0.181  0.001
  Li_i1  Li1+  0.379  0.200  0.217  0.001
  Li_i1  Li1+  0.294  0.352  0.381  0.001
  Li_i1  Li1+  0.979  0.800  0.217  0.001
  Li_i1  Li1+  0.379  0.200  0.417  0.001
  Li_i1  Li1+  0.094  0.152  0.581  0.001
  Li_i1  Li1+  0.294  0.352  0.581  0.001
  Li_i1  Li1+  0.894  0.952  0.381  0.001
  Li_i1  Li1+  0.379  0.200  0.617  0.001
  Li_i1  Li1+  0.979  0.800  0.417  0.001
  Li_i1  Li1+  0.894  0.952  0.581  0.001
  Li_i1  Li1+  0.179  0.400  0.017  0.001
  Li_i1  Li1+  0.979  0.800  0.617  0.001
  Li_i1  Li1+  0.894  0.952  0.781  0.001
  Li_i1  Li1+  0.979  0.800  0.817  0.001
  Li_i1  Li1+  0.294  0.352  0.781  0.001
  Li_i1  Li1+  0.894  0.952  0.981  0.001
  Li_i2  Li1+  0.223  0.000  0.214  0.001
  Li_i2  Li1+  0.423  0.600  0.414  0.001
  Li_i2  Li1+  0.023  0.400  0.814  0.001
  Li_i2  Li1+  0.623  0.600  0.614  0.001
  Li_i2  Li1+  0.423  0.000  0.014  0.001
  Li_i2  Li1+  0.023  0.000  0.814  0.001
  Li_i2  Li1+  0.623  0.600  0.814  0.001
  Li_i2  Li1+  0.223  0.400  0.214  0.001
  Li_i2  Li1+  0.423  0.600  0.614  0.001
  Li_i2  Li1+  0.623  0.800  0.014  0.001
  Li_i2  Li1+  0.023  0.400  0.214  0.001
  Li_i2  Li1+  0.023  0.800  0.014  0.001
  Li_i2  Li1+  0.423  0.600  0.814  0.001
  Li_i2  Li1+  0.623  0.800  0.214  0.001
  Li_i2  Li1+  0.423  0.000  0.214  0.001
  Li_i2  Li1+  0.223  -0.000  0.414  0.001
  Li_i2  Li1+  0.623  0.800  0.414  0.001
  Li_i2  Li1+  0.223  0.400  0.414  0.001
  Li_i2  Li1+  0.423  0.800  0.014  0.001
  Li_i2  Li1+  0.623  0.800  0.614  0.001
  Li_i2  Li1+  0.423  -0.000  0.414  0.001
  Li_i2  Li1+  0.023  0.200  0.614  0.001
  Li_i2  Li1+  0.623  0.800  0.814  0.001
  Li_i2  Li1+  0.423  0.800  0.214  0.001
  Li_i2  Li1+  0.023  -0.000  0.614  0.001
  Li_i2  Li1+  0.423  -0.000  0.614  0.001
  Li_i2  Li1+  0.823  0.000  0.014  0.001
  Li_i2  Li1+  0.423  0.800  0.414  0.001
  Li_i2  Li1+  0.223  0.400  0.614  0.001
  Li_i2  Li1+  0.223  -0.000  0.614  0.001
  Li_i2  Li1+  0.023  0.600  0.014  0.001
  Li_i2  Li1+  0.823  0.000  0.214  0.001
  Li_i2  Li1+  0.423  0.000  0.814  0.001
  Li_i2  Li1+  0.023  0.200  0.214  0.001
  Li_i2  Li1+  0.423  0.800  0.614  0.001
  Li_i2  Li1+  0.823  -0.000  0.414  0.001
  Li_i2  Li1+  0.223  0.000  0.814  0.001
  Li_i2  Li1+  0.423  0.200  0.014  0.001
  Li_i2  Li1+  0.823  -0.000  0.614  0.001
  Li_i2  Li1+  0.223  0.400  0.814  0.001
  Li_i2  Li1+  0.423  0.800  0.814  0.001
  Li_i2  Li1+  0.823  0.000  0.814  0.001
  Li_i2  Li1+  0.023  0.800  0.214  0.001
  Li_i2  Li1+  0.023  0.200  0.814  0.001
  Li_i2  Li1+  0.423  0.200  0.214  0.001
  Li_i2  Li1+  0.223  0.600  0.014  0.001
  Li_i2  Li1+  0.823  0.200  0.014  0.001
  Li_i2  Li1+  0.623  0.000  0.014  0.001
  Li_i2  Li1+  0.023  0.600  0.214  0.001
  Li_i2  Li1+  0.823  0.200  0.214  0.001
  Li_i2  Li1+  0.423  0.200  0.414  0.001
  Li_i2  Li1+  0.623  0.000  0.214  0.001
  Li_i2  Li1+  0.823  0.200  0.414  0.001
  Li_i2  Li1+  0.023  0.800  0.414  0.001
  Li_i2  Li1+  0.223  0.200  0.014  0.001
  Li_i2  Li1+  0.823  0.200  0.614  0.001
  Li_i2  Li1+  0.423  0.200  0.614  0.001
  Li_i2  Li1+  0.623  -0.000  0.414  0.001
  Li_i2  Li1+  0.823  0.200  0.814  0.001
  Li_i2  Li1+  0.223  0.600  0.214  0.001
  Li_i2  Li1+  0.023  0.400  0.414  0.001
  Li_i2  Li1+  0.623  -0.000  0.614  0.001
  Li_i2  Li1+  0.423  0.200  0.814  0.001
  Li_i2  Li1+  0.023  -0.000  0.414  0.001
  Li_i2  Li1+  0.823  0.400  0.014  0.001
  Li_i2  Li1+  0.223  0.600  0.414  0.001
  Li_i2  Li1+  0.023  0.800  0.614  0.001
  Li_i2  Li1+  0.623  0.000  0.814  0.001
  Li_i2  Li1+  0.823  0.400  0.214  0.001
  Li_i2  Li1+  0.423  0.400  0.014  0.001
  Li_i2  Li1+  0.223  0.200  0.214  0.001
  Li_i2  Li1+  0.023  0.600  0.414  0.001
  Li_i2  Li1+  0.623  0.200  0.014  0.001
  Li_i2  Li1+  0.823  0.400  0.414  0.001
  Li_i2  Li1+  0.223  0.600  0.614  0.001
  Li_i2  Li1+  0.423  0.400  0.214  0.001
  Li_i2  Li1+  0.823  0.400  0.614  0.001
  Li_i2  Li1+  0.623  0.200  0.214  0.001
  Li_i2  Li1+  0.023  0.000  0.014  0.001
  Li_i2  Li1+  0.823  0.400  0.814  0.001
  Li_i2  Li1+  0.223  0.200  0.414  0.001
  Li_i2  Li1+  0.223  0.600  0.814  0.001
  Li_i2  Li1+  0.623  0.200  0.414  0.001
  Li_i2  Li1+  0.023  0.200  0.014  0.001
  Li_i2  Li1+  0.823  0.600  0.014  0.001
  Li_i2  Li1+  0.423  0.400  0.414  0.001
  Li_i2  Li1+  0.623  0.200  0.614  0.001
  Li_i2  Li1+  0.823  0.600  0.214  0.001
  Li_i2  Li1+  0.023  0.800  0.814  0.001
  Li_i2  Li1+  0.023  0.400  0.614  0.001
  Li_i2  Li1+  0.823  0.600  0.414  0.001
  Li_i2  Li1+  0.223  0.800  0.014  0.001
  Li_i2  Li1+  0.623  0.200  0.814  0.001
  Li_i2  Li1+  0.823  0.600  0.614  0.001
  Li_i2  Li1+  0.423  0.400  0.614  0.001
  Li_i2  Li1+  0.223  0.200  0.614  0.001
  Li_i2  Li1+  0.623  0.400  0.014  0.001
  Li_i2  Li1+  0.823  0.600  0.814  0.001
  Li_i2  Li1+  0.023  0.600  0.614  0.001
  Li_i2  Li1+  0.423  0.400  0.814  0.001
  Li_i2  Li1+  0.623  0.400  0.214  0.001
  Li_i2  Li1+  0.823  0.800  0.014  0.001
  Li_i2  Li1+  0.223  0.800  0.214  0.001
  Li_i2  Li1+  0.023  0.200  0.414  0.001
  Li_i2  Li1+  0.623  0.400  0.414  0.001
  Li_i2  Li1+  0.223  0.000  0.014  0.001
  Li_i2  Li1+  0.223  0.800  0.414  0.001
  Li_i2  Li1+  0.623  0.400  0.614  0.001
  Li_i2  Li1+  0.823  0.800  0.214  0.001
  Li_i2  Li1+  0.223  0.200  0.814  0.001
  Li_i2  Li1+  0.423  0.600  0.014  0.001
  Li_i2  Li1+  0.623  0.400  0.814  0.001
  Li_i2  Li1+  0.023  0.400  0.014  0.001
  Li_i2  Li1+  0.023  0.000  0.214  0.001
  Li_i2  Li1+  0.223  0.800  0.614  0.001
  Li_i2  Li1+  0.823  0.800  0.414  0.001
  Li_i2  Li1+  0.623  0.600  0.014  0.001
  Li_i2  Li1+  0.023  0.600  0.814  0.001
  Li_i2  Li1+  0.423  0.600  0.214  0.001
  Li_i2  Li1+  0.823  0.800  0.614  0.001
  Li_i2  Li1+  0.623  0.600  0.214  0.001
  Li_i2  Li1+  0.223  0.400  0.014  0.001
  Li_i2  Li1+  0.823  0.800  0.814  0.001
  Li_i2  Li1+  0.223  0.800  0.814  0.001
  Li_i2  Li1+  0.623  0.600  0.414  0.001
  Li_i3  Li1+  0.004  0.392  0.550  0.001
  Li_i3  Li1+  0.604  0.192  0.550  0.001
  Li_i3  Li1+  0.804  0.192  0.150  0.001
  Li_i3  Li1+  0.404  0.592  0.550  0.001
  Li_i3  Li1+  0.004  0.192  0.150  0.001
  Li_i3  Li1+  0.204  0.592  0.750  0.001
  Li_i3  Li1+  0.604  0.192  0.750  0.001
  Li_i3  Li1+  0.204  0.992  0.950  0.001
  Li_i3  Li1+  0.804  0.192  0.350  0.001
  Li_i3  Li1+  0.204  0.392  0.150  0.001
  Li_i3  Li1+  0.404  0.592  0.750  0.001
  Li_i3  Li1+  0.004  0.992  0.950  0.001
  Li_i3  Li1+  0.004  0.792  0.950  0.001
  Li_i3  Li1+  0.804  0.192  0.550  0.001
  Li_i3  Li1+  0.604  0.192  0.950  0.001
  Li_i3  Li1+  0.404  0.192  0.150  0.001
  Li_i3  Li1+  0.404  0.592  0.950  0.001
  Li_i3  Li1+  0.804  0.192  0.750  0.001
  Li_i3  Li1+  0.004  0.592  0.550  0.001
  Li_i3  Li1+  0.004  0.792  0.150  0.001
  Li_i3  Li1+  0.604  0.392  0.150  0.001
  Li_i3  Li1+  0.804  0.192  0.950  0.001
  Li_i3  Li1+  0.204  0.592  0.950  0.001
  Li_i3  Li1+  0.204  0.392  0.350  0.001
  Li_i3  Li1+  0.004  0.192  0.550  0.001
  Li_i3  Li1+  0.604  0.392  0.350  0.001
  Li_i3  Li1+  0.404  0.192  0.350  0.001
  Li_i3  Li1+  0.804  0.392  0.150  0.001
  Li_i3  Li1+  0.404  0.792  0.150  0.001
  Li_i3  Li1+  0.204  0.192  0.150  0.001
  Li_i3  Li1+  0.204  0.792  0.150  0.001
  Li_i3  Li1+  0.804  0.392  0.350  0.001
  Li_i3  Li1+  0.604  0.392  0.550  0.001
  Li_i3  Li1+  0.004  0.392  0.350  0.001
  Li_i3  Li1+  0.404  0.192  0.550  0.001
  Li_i3  Li1+  0.804  0.392  0.550  0.001
  Li_i3  Li1+  0.204  0.392  0.550  0.001
  Li_i3  Li1+  0.604  0.392  0.750  0.001
  Li_i3  Li1+  0.404  0.792  0.350  0.001
  Li_i3  Li1+  0.804  0.392  0.750  0.001
  Li_i3  Li1+  0.004  0.992  0.150  0.001
  Li_i3  Li1+  0.004  0.592  0.150  0.001
  Li_i3  Li1+  0.404  0.192  0.750  0.001
  Li_i3  Li1+  0.804  0.392  0.950  0.001
  Li_i3  Li1+  0.604  0.392  0.950  0.001
  Li_i3  Li1+  0.204  0.792  0.350  0.001
  Li_i3  Li1+  0.404  0.792  0.550  0.001
  Li_i3  Li1+  0.004  0.792  0.350  0.001
  Li_i3  Li1+  0.604  0.592  0.150  0.001
  Li_i3  Li1+  0.204  0.192  0.350  0.001
  Li_i3  Li1+  0.804  0.592  0.150  0.001
  Li_i3  Li1+  0.204  0.392  0.750  0.001
  Li_i3  Li1+  0.404  0.192  0.950  0.001
  Li_i3  Li1+  0.604  0.592  0.350  0.001
  Li_i3  Li1+  0.204  0.792  0.550  0.001
  Li_i3  Li1+  0.804  0.592  0.350  0.001
  Li_i3  Li1+  0.404  0.792  0.750  0.001
  Li_i3  Li1+  0.004  0.392  0.750  0.001
  Li_i3  Li1+  0.604  0.592  0.550  0.001
  Li_i3  Li1+  0.004  0.592  0.750  0.001
  Li_i3  Li1+  0.404  0.392  0.150  0.001
  Li_i3  Li1+  0.804  0.592  0.550  0.001
  Li_i3  Li1+  0.404  0.792  0.950  0.001
  Li_i3  Li1+  0.604  0.592  0.750  0.001
  Li_i3  Li1+  0.004  0.192  0.750  0.001
  Li_i3  Li1+  0.804  0.592  0.750  0.001
  Li_i3  Li1+  0.004  0.992  0.350  0.001
  Li_i3  Li1+  0.204  0.792  0.750  0.001
  Li_i3  Li1+  0.604  0.592  0.950  0.001
  Li_i3  Li1+  0.804  0.592  0.950  0.001
  Li_i3  Li1+  0.204  0.392  0.950  0.001
  Li_i3  Li1+  0.404  0.992  0.150  0.001
  Li_i3  Li1+  0.404  0.392  0.350  0.001
  Li_i3  Li1+  0.004  0.792  0.550  0.001
  Li_i3  Li1+  0.604  0.792  0.150  0.001
  Li_i3  Li1+  0.804  0.792  0.150  0.001
  Li_i3  Li1+  0.204  0.192  0.550  0.001
  Li_i3  Li1+  0.404  0.992  0.350  0.001
  Li_i3  Li1+  0.204  0.792  0.950  0.001
  Li_i3  Li1+  0.804  0.792  0.350  0.001
  Li_i3  Li1+  0.604  0.792  0.350  0.001
  Li_i3  Li1+  0.404  0.392  0.550  0.001
  Li_i3  Li1+  0.004  0.392  0.150  0.001
  Li_i3  Li1+  0.804  0.792  0.550  0.001
  Li_i3  Li1+  0.404  0.992  0.550  0.001
  Li_i3  Li1+  0.604  0.792  0.550  0.001
  Li_i3  Li1+  0.004  0.592  0.350  0.001
  Li_i3  Li1+  0.804  0.792  0.750  0.001
  Li_i3  Li1+  0.204  0.592  0.150  0.001
  Li_i3  Li1+  0.404  0.392  0.750  0.001
  Li_i3  Li1+  0.004  0.992  0.550  0.001
  Li_i3  Li1+  0.604  0.792  0.750  0.001
  Li_i3  Li1+  0.804  0.792  0.950  0.001
  Li_i3  Li1+  0.204  0.992  0.150  0.001
  Li_i3  Li1+  0.204  0.192  0.750  0.001
  Li_i3  Li1+  0.404  0.992  0.750  0.001
  Li_i3  Li1+  0.604  0.792  0.950  0.001
  Li_i3  Li1+  0.804  0.992  0.150  0.001
  Li_i3  Li1+  0.404  0.392  0.950  0.001
  Li_i3  Li1+  0.004  0.192  0.950  0.001
  Li_i3  Li1+  0.004  0.592  0.950  0.001
  Li_i3  Li1+  0.604  0.992  0.150  0.001
  Li_i3  Li1+  0.204  0.992  0.350  0.001
  Li_i3  Li1+  0.404  0.992  0.950  0.001
  Li_i3  Li1+  0.204  0.592  0.350  0.001
  Li_i3  Li1+  0.804  0.992  0.350  0.001
  Li_i3  Li1+  0.404  0.592  0.150  0.001
  Li_i3  Li1+  0.604  0.992  0.350  0.001
  Li_i3  Li1+  0.004  0.792  0.750  0.001
  Li_i3  Li1+  0.204  0.192  0.950  0.001
  Li_i3  Li1+  0.204  0.992  0.550  0.001
  Li_i3  Li1+  0.604  0.992  0.550  0.001
  Li_i3  Li1+  0.604  0.192  0.150  0.001
  Li_i3  Li1+  0.804  0.992  0.550  0.001
  Li_i3  Li1+  0.004  0.992  0.750  0.001
  Li_i3  Li1+  0.404  0.592  0.350  0.001
  Li_i3  Li1+  0.604  0.992  0.750  0.001
  Li_i3  Li1+  0.004  0.392  0.950  0.001
  Li_i3  Li1+  0.804  0.992  0.750  0.001
  Li_i3  Li1+  0.604  0.192  0.350  0.001
  Li_i3  Li1+  0.204  0.592  0.550  0.001
  Li_i3  Li1+  0.604  0.992  0.950  0.001
  Li_i3  Li1+  0.804  0.992  0.950  0.001
  Li_i3  Li1+  0.004  0.192  0.350  0.001
  Li_i3  Li1+  0.204  0.992  0.750  0.001
  Li_i4  Li1+  0.400  0.423  0.582  0.001
  Li_i4  Li1+  0.200  0.623  0.782  0.001
  Li_i4  Li1+  0.600  0.423  0.782  0.001
  Li_i4  Li1+  0.148  0.981  0.279  0.001
  Li_i4  Li1+  0.748  0.581  0.679  0.001
  Li_i4  Li1+  0.548  0.581  0.479  0.001
  Li_i4  Li1+  0.348  0.781  0.679  0.001
  Li_i4  Li1+  0.348  0.381  0.079  0.001
  Li_i4  Li1+  0.600  0.423  0.982  0.001
  Li_i4  Li1+  0.000  0.623  0.182  0.001
  Li_i4  Li1+  0.748  0.581  0.879  0.001
  Li_i4  Li1+  0.400  0.423  0.782  0.001
  Li_i4  Li1+  -0.000  0.423  0.382  0.001
  Li_i4  Li1+  0.548  0.581  0.679  0.001
  Li_i4  Li1+  0.200  0.623  0.982  0.001
  Li_i4  Li1+  0.600  0.623  0.182  0.001
  Li_i4  Li1+  0.148  0.781  0.079  0.001
  Li_i4  Li1+  0.748  0.781  0.079  0.001
  Li_i4  Li1+  0.200  0.223  0.382  0.001
  Li_i4  Li1+  0.400  0.423  0.982  0.001
  Li_i4  Li1+  0.348  0.781  0.879  0.001
  Li_i4  Li1+  0.600  0.623  0.382  0.001
  Li_i4  Li1+  0.000  0.823  0.582  0.001
  Li_i4  Li1+  0.748  0.781  0.279  0.001
  Li_i4  Li1+  0.348  0.381  0.279  0.001
  Li_i4  Li1+  0.000  0.023  0.582  0.001
  Li_i4  Li1+  0.548  0.581  0.879  0.001
  Li_i4  Li1+  0.600  0.623  0.582  0.001
  Li_i4  Li1+  0.200  0.823  0.182  0.001
  Li_i4  Li1+  0.148  0.981  0.479  0.001
  Li_i4  Li1+  0.748  0.781  0.479  0.001
  Li_i4  Li1+  0.348  0.981  0.079  0.001
  Li_i4  Li1+  0.400  0.623  0.182  0.001
  Li_i4  Li1+  0.148  0.381  0.079  0.001
  Li_i4  Li1+  0.600  0.623  0.782  0.001
  Li_i4  Li1+  0.200  0.223  0.582  0.001
  Li_i4  Li1+  0.748  0.781  0.679  0.001
  Li_i4  Li1+  0.548  0.781  0.079  0.001
  Li_i4  Li1+  -0.000  0.223  0.782  0.001
  Li_i4  Li1+  0.200  0.823  0.382  0.001
  Li_i4  Li1+  0.600  0.623  0.982  0.001
  Li_i4  Li1+  -0.000  0.623  0.382  0.001
  Li_i4  Li1+  0.748  0.781  0.879  0.001
  Li_i4  Li1+  0.348  0.981  0.279  0.001
  Li_i4  Li1+  0.400  0.623  0.382  0.001
  Li_i4  Li1+  0.348  0.381  0.479  0.001
  Li_i4  Li1+  0.600  0.823  0.182  0.001
  Li_i4  Li1+  -0.000  0.823  0.782  0.001
  Li_i4  Li1+  0.548  0.781  0.279  0.001
  Li_i4  Li1+  0.748  0.981  0.079  0.001
  Li_i4  Li1+  0.148  0.581  0.279  0.001
  Li_i4  Li1+  0.200  0.823  0.582  0.001
  Li_i4  Li1+  0.148  0.781  0.279  0.001
  Li_i4  Li1+  0.600  0.823  0.382  0.001
  Li_i4  Li1+  0.400  0.623  0.582  0.001
  Li_i4  Li1+  0.748  0.981  0.279  0.001
  Li_i4  Li1+  0.200  0.223  0.782  0.001
  Li_i4  Li1+  0.348  0.981  0.479  0.001
  Li_i4  Li1+  0.548  0.781  0.479  0.001
  Li_i4  Li1+  0.600  0.823  0.582  0.001
  Li_i4  Li1+  0.148  0.981  0.679  0.001
  Li_i4  Li1+  0.748  0.981  0.479  0.001
  Li_i4  Li1+  0.148  0.181  0.279  0.001
  Li_i4  Li1+  0.348  0.381  0.679  0.001
  Li_i4  Li1+  0.200  0.823  0.782  0.001
  Li_i4  Li1+  0.600  0.823  0.782  0.001
  Li_i4  Li1+  0.400  0.623  0.782  0.001
  Li_i4  Li1+  0.748  0.981  0.679  0.001
  Li_i4  Li1+  0.148  0.381  0.679  0.001
  Li_i4  Li1+  0.548  0.781  0.679  0.001
  Li_i4  Li1+  0.348  0.981  0.679  0.001
  Li_i4  Li1+  0.600  0.823  0.982  0.001
  Li_i4  Li1+  -0.000  0.023  0.982  0.001
  Li_i4  Li1+  0.000  0.823  0.982  0.001
  Li_i4  Li1+  0.748  0.981  0.879  0.001
  Li_i4  Li1+  0.400  0.623  0.982  0.001
  Li_i4  Li1+  0.200  0.223  0.982  0.001
  Li_i4  Li1+  0.200  0.823  0.982  0.001
  Li_i4  Li1+  0.800  0.023  0.182  0.001
  Li_i4  Li1+  0.548  0.781  0.879  0.001
  Li_i4  Li1+  0.000  0.623  0.582  0.001
  Li_i4  Li1+  0.348  0.981  0.879  0.001
  Li_i4  Li1+  0.948  0.181  0.079  0.001
  Li_i4  Li1+  0.000  0.423  0.582  0.001
  Li_i4  Li1+  0.400  0.823  0.182  0.001
  Li_i4  Li1+  0.348  0.381  0.879  0.001
  Li_i4  Li1+  0.800  0.023  0.382  0.001
  Li_i4  Li1+  0.548  0.981  0.079  0.001
  Li_i4  Li1+  0.148  0.981  0.879  0.001
  Li_i4  Li1+  0.948  0.181  0.279  0.001
  Li_i4  Li1+  0.400  0.023  0.182  0.001
  Li_i4  Li1+  -0.000  0.023  0.182  0.001
  Li_i4  Li1+  0.400  0.823  0.382  0.001
  Li_i4  Li1+  0.800  0.023  0.582  0.001
  Li_i4  Li1+  0.148  0.781  0.479  0.001
  Li_i4  Li1+  0.948  0.181  0.479  0.001
  Li_i4  Li1+  0.548  0.981  0.279  0.001
  Li_i4  Li1+  0.200  0.423  0.182  0.001
  Li_i4  Li1+  0.548  0.181  0.079  0.001
  Li_i4  Li1+  0.800  0.023  0.782  0.001
  Li_i4  Li1+  -0.000  0.223  0.382  0.001
  Li_i4  Li1+  0.948  0.181  0.679  0.001
  Li_i4  Li1+  0.400  0.823  0.582  0.001
  Li_i4  Li1+  0.200  0.023  0.182  0.001
  Li_i4  Li1+  0.348  0.581  0.079  0.001
  Li_i4  Li1+  0.800  0.023  0.982  0.001
  Li_i4  Li1+  0.400  0.023  0.382  0.001
  Li_i4  Li1+  0.148  0.581  0.479  0.001
  Li_i4  Li1+  0.548  0.981  0.479  0.001
  Li_i4  Li1+  0.948  0.181  0.879  0.001
  Li_i4  Li1+  0.548  0.181  0.279  0.001
  Li_i4  Li1+  -0.000  0.223  0.982  0.001
  Li_i4  Li1+  0.348  0.181  0.079  0.001
  Li_i4  Li1+  0.800  0.223  0.182  0.001
  Li_i4  Li1+  0.400  0.823  0.782  0.001
  Li_i4  Li1+  0.948  0.381  0.079  0.001
  Li_i4  Li1+  0.200  0.423  0.382  0.001
  Li_i4  Li1+  0.400  0.023  0.582  0.001
  Li_i4  Li1+  0.548  0.981  0.679  0.001
  Li_i4  Li1+  0.800  0.223  0.382  0.001
  Li_i4  Li1+  -0.000  0.623  0.782  0.001
  Li_i4  Li1+  0.948  0.381  0.279  0.001
  Li_i4  Li1+  0.548  0.181  0.479  0.001
  Li_i4  Li1+  -0.000  0.023  0.782  0.001
  Li_i4  Li1+  0.400  0.823  0.982  0.001
  Li_i4  Li1+  0.800  0.223  0.582  0.001
  Li_i4  Li1+  0.348  0.581  0.279  0.001
  Li_i4  Li1+  0.948  0.381  0.479  0.001
  Li_i4  Li1+  0.148  0.181  0.879  0.001
  Li_i4  Li1+  0.400  0.023  0.782  0.001
  Li_i4  Li1+  0.548  0.981  0.879  0.001
  Li_i4  Li1+  0.800  0.223  0.782  0.001
  Li_i4  Li1+  0.200  0.023  0.382  0.001
  Li_i4  Li1+  0.948  0.381  0.679  0.001
  Li_i4  Li1+  0.148  0.781  0.679  0.001
  Li_i4  Li1+  0.548  0.181  0.679  0.001
  Li_i4  Li1+  0.600  0.023  0.182  0.001
  Li_i4  Li1+  0.800  0.223  0.982  0.001
  Li_i4  Li1+  0.200  0.423  0.582  0.001
  Li_i4  Li1+  0.748  0.181  0.079  0.001
  Li_i4  Li1+  -0.000  0.423  0.782  0.001
  Li_i4  Li1+  0.348  0.581  0.479  0.001
  Li_i4  Li1+  0.948  0.381  0.879  0.001
  Li_i4  Li1+  0.400  0.023  0.982  0.001
  Li_i4  Li1+  0.600  0.023  0.382  0.001
  Li_i4  Li1+  0.148  0.381  0.279  0.001
  Li_i4  Li1+  0.800  0.423  0.182  0.001
  Li_i4  Li1+  0.548  0.181  0.879  0.001
  Li_i4  Li1+  0.748  0.181  0.279  0.001
  Li_i4  Li1+  0.948  0.581  0.079  0.001
  Li_i4  Li1+  0.348  0.181  0.279  0.001
  Li_i4  Li1+  0.148  0.381  0.879  0.001
  Li_i4  Li1+  0.200  0.423  0.782  0.001
  Li_i4  Li1+  0.800  0.423  0.382  0.001
  Li_i4  Li1+  0.600  0.023  0.582  0.001
  Li_i4  Li1+  0.400  0.223  0.182  0.001
  Li_i4  Li1+  0.748  0.181  0.479  0.001
  Li_i4  Li1+  0.948  0.581  0.279  0.001
  Li_i4  Li1+  -0.000  0.623  0.982  0.001
  Li_i4  Li1+  0.148  0.581  0.679  0.001
  Li_i4  Li1+  0.548  0.381  0.079  0.001
  Li_i4  Li1+  0.800  0.423  0.582  0.001
  Li_i4  Li1+  0.600  0.023  0.782  0.001
  Li_i4  Li1+  0.948  0.581  0.479  0.001
  Li_i4  Li1+  0.200  0.023  0.582  0.001
  Li_i4  Li1+  0.348  0.581  0.679  0.001
  Li_i4  Li1+  0.000  0.023  0.382  0.001
  Li_i4  Li1+  0.800  0.423  0.782  0.001
  Li_i4  Li1+  0.748  0.181  0.679  0.001
  Li_i4  Li1+  0.948  0.581  0.679  0.001
  Li_i4  Li1+  0.400  0.223  0.382  0.001
  Li_i4  Li1+  0.348  0.181  0.479  0.001
  Li_i4  Li1+  0.548  0.381  0.279  0.001
  Li_i4  Li1+  0.800  0.423  0.982  0.001
  Li_i4  Li1+  0.600  0.023  0.982  0.001
  Li_i4  Li1+  0.148  0.781  0.879  0.001
  Li_i4  Li1+  0.200  0.423  0.982  0.001
  Li_i4  Li1+  0.948  0.581  0.879  0.001
  Li_i4  Li1+  0.748  0.181  0.879  0.001
  Li_i4  Li1+  0.148  0.181  0.079  0.001
  Li_i4  Li1+  0.400  0.223  0.582  0.001
  Li_i4  Li1+  0.800  0.623  0.182  0.001
  Li_i4  Li1+  0.348  0.581  0.879  0.001
  Li_i4  Li1+  0.948  0.781  0.079  0.001
  Li_i4  Li1+  0.600  0.223  0.182  0.001
  Li_i4  Li1+  0.548  0.381  0.479  0.001
  Li_i4  Li1+  0.748  0.381  0.079  0.001
  Li_i4  Li1+  0.800  0.623  0.382  0.001
  Li_i4  Li1+  0.148  0.181  0.679  0.001
  Li_i4  Li1+  0.948  0.781  0.279  0.001
  Li_i4  Li1+  0.200  0.023  0.782  0.001
  Li_i4  Li1+  -0.000  0.423  0.982  0.001
  Li_i4  Li1+  0.600  0.223  0.382  0.001
  Li_i4  Li1+  0.800  0.623  0.582  0.001
  Li_i4  Li1+  0.400  0.223  0.782  0.001
  Li_i4  Li1+  0.948  0.781  0.479  0.001
  Li_i4  Li1+  0.200  0.623  0.182  0.001
  Li_i4  Li1+  0.748  0.381  0.279  0.001
  Li_i4  Li1+  0.548  0.381  0.679  0.001
  Li_i4  Li1+  0.800  0.623  0.782  0.001
  Li_i4  Li1+  0.348  0.181  0.679  0.001
  Li_i4  Li1+  0.000  0.823  0.182  0.001
  Li_i4  Li1+  0.948  0.781  0.679  0.001
  Li_i4  Li1+  0.600  0.223  0.582  0.001
  Li_i4  Li1+  0.348  0.781  0.079  0.001
  Li_i4  Li1+  0.748  0.381  0.479  0.001
  Li_i4  Li1+  0.800  0.623  0.982  0.001
  Li_i4  Li1+  0.400  0.223  0.982  0.001
  Li_i4  Li1+  0.000  0.423  0.182  0.001
  Li_i4  Li1+  0.948  0.781  0.879  0.001
  Li_i4  Li1+  0.000  0.223  0.582  0.001
  Li_i4  Li1+  0.600  0.223  0.782  0.001
  Li_i4  Li1+  0.548  0.381  0.879  0.001
  Li_i4  Li1+  0.800  0.823  0.182  0.001
  Li_i4  Li1+  0.748  0.381  0.679  0.001
  Li_i4  Li1+  0.200  0.023  0.982  0.001
  Li_i4  Li1+  0.200  0.623  0.382  0.001
  Li_i4  Li1+  0.148  0.581  0.079  0.001
  Li_i4  Li1+  0.400  0.423  0.182  0.001
  Li_i4  Li1+  0.948  0.981  0.079  0.001
  Li_i4  Li1+  0.600  0.223  0.982  0.001
  Li_i4  Li1+  0.348  0.781  0.279  0.001
  Li_i4  Li1+  0.748  0.381  0.879  0.001
  Li_i4  Li1+  0.800  0.823  0.382  0.001
  Li_i4  Li1+  0.148  0.981  0.079  0.001
  Li_i4  Li1+  0.548  0.581  0.079  0.001
  Li_i4  Li1+  0.148  0.581  0.879  0.001
  Li_i4  Li1+  0.600  0.423  0.182  0.001
  Li_i4  Li1+  0.348  0.181  0.879  0.001
  Li_i4  Li1+  0.948  0.981  0.279  0.001
  Li_i4  Li1+  0.748  0.581  0.079  0.001
  Li_i4  Li1+  0.200  0.623  0.582  0.001
  Li_i4  Li1+  0.400  0.423  0.382  0.001
  Li_i4  Li1+  0.800  0.823  0.582  0.001
  Li_i4  Li1+  0.000  0.223  0.182  0.001
  Li_i4  Li1+  0.600  0.423  0.382  0.001
  Li_i4  Li1+  0.948  0.981  0.479  0.001
  Li_i4  Li1+  0.148  0.381  0.479  0.001
  Li_i4  Li1+  0.748  0.581  0.279  0.001
  Li_i4  Li1+  0.348  0.781  0.479  0.001
  Li_i4  Li1+  0.800  0.823  0.782  0.001
  Li_i4  Li1+  0.548  0.581  0.279  0.001
  Li_i4  Li1+  0.948  0.981  0.679  0.001
  Li_i4  Li1+  -0.000  0.823  0.382  0.001
  Li_i4  Li1+  0.600  0.423  0.582  0.001
  Li_i4  Li1+  0.200  0.223  0.182  0.001
  Li_i4  Li1+  0.800  0.823  0.982  0.001
  Li_i4  Li1+  0.748  0.581  0.479  0.001
  Li_i4  Li1+  0.148  0.181  0.479  0.001
  Li_i4  Li1+  0.948  0.981  0.879  0.001
  Li_i5  Li1+  0.206  0.942  0.515  0.001
  Li_i5  Li1+  0.006  0.142  0.115  0.001
  Li_i5  Li1+  0.006  0.342  0.915  0.001
  Li_i5  Li1+  0.606  0.942  0.115  0.001
  Li_i5  Li1+  0.606  0.342  0.515  0.001
  Li_i5  Li1+  0.206  0.342  0.315  0.001
  Li_i5  Li1+  0.406  0.942  0.515  0.001
  Li_i5  Li1+  0.406  0.542  0.715  0.001
  Li_i5  Li1+  0.806  0.542  0.115  0.001
  Li_i5  Li1+  0.206  0.742  0.315  0.001
  Li_i5  Li1+  0.406  0.342  0.115  0.001
  Li_i5  Li1+  0.606  0.942  0.315  0.001
  Li_i5  Li1+  0.206  0.142  0.515  0.001
  Li_i5  Li1+  0.606  0.342  0.715  0.001
  Li_i5  Li1+  0.006  0.742  0.715  0.001
  Li_i5  Li1+  0.806  0.542  0.315  0.001
  Li_i5  Li1+  0.006  0.142  0.315  0.001
  Li_i5  Li1+  0.206  0.942  0.715  0.001
  Li_i5  Li1+  0.206  0.542  0.315  0.001
  Li_i5  Li1+  0.606  0.942  0.515  0.001
  Li_i5  Li1+  0.406  0.542  0.915  0.001
  Li_i5  Li1+  0.406  0.942  0.715  0.001
  Li_i5  Li1+  0.006  0.942  0.915  0.001
  Li_i5  Li1+  0.606  0.342  0.915  0.001
  Li_i5  Li1+  0.806  0.542  0.515  0.001
  Li_i5  Li1+  0.006  0.542  0.515  0.001
  Li_i5  Li1+  0.406  0.342  0.315  0.001
  Li_i5  Li1+  0.606  0.942  0.715  0.001
  Li_i5  Li1+  0.206  0.742  0.515  0.001
  Li_i5  Li1+  0.006  0.342  0.115  0.001
  Li_i5  Li1+  0.206  0.342  0.515  0.001
  Li_i5  Li1+  0.806  0.542  0.715  0.001
  Li_i5  Li1+  0.206  0.942  0.915  0.001
  Li_i5  Li1+  0.606  0.542  0.115  0.001
  Li_i5  Li1+  0.406  0.942  0.915  0.001
  Li_i5  Li1+  0.006  0.942  0.315  0.001
  Li_i5  Li1+  0.606  0.942  0.915  0.001
  Li_i5  Li1+  0.406  0.742  0.115  0.001
  Li_i5  Li1+  0.806  0.542  0.915  0.001
  Li_i5  Li1+  0.206  0.142  0.715  0.001
  Li_i5  Li1+  0.406  0.342  0.515  0.001
  Li_i5  Li1+  0.206  0.542  0.515  0.001
  Li_i5  Li1+  0.606  0.542  0.315  0.001
  Li_i5  Li1+  0.006  0.742  0.315  0.001
  Li_i5  Li1+  0.006  0.542  0.915  0.001
  Li_i5  Li1+  0.806  0.142  0.115  0.001
  Li_i5  Li1+  0.206  0.742  0.715  0.001
  Li_i5  Li1+  0.806  0.742  0.115  0.001
  Li_i5  Li1+  0.606  0.142  0.115  0.001
  Li_i5  Li1+  0.406  0.142  0.115  0.001
  Li_i5  Li1+  0.006  0.342  0.715  0.001
  Li_i5  Li1+  0.606  0.542  0.515  0.001
  Li_i5  Li1+  0.406  0.742  0.315  0.001
  Li_i5  Li1+  0.406  0.342  0.715  0.001
  Li_i5  Li1+  0.806  0.742  0.315  0.001
  Li_i5  Li1+  0.806  0.142  0.315  0.001
  Li_i5  Li1+  0.006  0.342  0.315  0.001
  Li_i5  Li1+  0.206  0.142  0.115  0.001
  Li_i5  Li1+  0.606  0.142  0.315  0.001
  Li_i5  Li1+  0.206  0.342  0.715  0.001
  Li_i5  Li1+  0.606  0.542  0.715  0.001
  Li_i5  Li1+  0.806  0.742  0.515  0.001
  Li_i5  Li1+  0.006  0.742  0.915  0.001
  Li_i5  Li1+  0.206  0.542  0.715  0.001
  Li_i5  Li1+  0.806  0.142  0.515  0.001
  Li_i5  Li1+  0.206  0.142  0.915  0.001
  Li_i5  Li1+  0.406  0.342  0.915  0.001
  Li_i5  Li1+  0.406  0.742  0.515  0.001
  Li_i5  Li1+  0.206  0.742  0.915  0.001
  Li_i5  Li1+  0.806  0.742  0.715  0.001
  Li_i5  Li1+  0.606  0.542  0.915  0.001
  Li_i5  Li1+  0.606  0.142  0.515  0.001
  Li_i5  Li1+  0.806  0.142  0.715  0.001
  Li_i5  Li1+  0.406  0.142  0.315  0.001
  Li_i5  Li1+  0.006  0.342  0.515  0.001
  Li_i5  Li1+  0.006  0.942  0.515  0.001
  Li_i5  Li1+  0.006  0.542  0.315  0.001
  Li_i5  Li1+  0.806  0.742  0.915  0.001
  Li_i5  Li1+  0.006  0.142  0.515  0.001
  Li_i5  Li1+  0.006  0.742  0.515  0.001
  Li_i5  Li1+  0.806  0.142  0.915  0.001
  Li_i5  Li1+  0.606  0.742  0.115  0.001
  Li_i5  Li1+  0.606  0.142  0.715  0.001
  Li_i5  Li1+  0.406  0.742  0.715  0.001
  Li_i5  Li1+  0.806  0.942  0.115  0.001
  Li_i5  Li1+  0.406  0.542  0.115  0.001
  Li_i5  Li1+  0.206  0.342  0.915  0.001
  Li_i5  Li1+  0.406  0.142  0.515  0.001
  Li_i5  Li1+  0.206  0.942  0.115  0.001
  Li_i5  Li1+  0.606  0.742  0.315  0.001
  Li_i5  Li1+  0.806  0.342  0.115  0.001
  Li_i5  Li1+  0.206  0.542  0.915  0.001
  Li_i5  Li1+  0.006  0.142  0.915  0.001
  Li_i5  Li1+  0.206  0.142  0.315  0.001
  Li_i5  Li1+  0.606  0.142  0.915  0.001
  Li_i5  Li1+  0.806  0.942  0.315  0.001
  Li_i5  Li1+  0.406  0.742  0.915  0.001
  Li_i5  Li1+  0.006  0.542  0.715  0.001
  Li_i5  Li1+  0.806  0.342  0.315  0.001
  Li_i5  Li1+  0.606  0.742  0.515  0.001
  Li_i5  Li1+  0.406  0.542  0.315  0.001
  Li_i5  Li1+  0.206  0.342  0.115  0.001
  Li_i5  Li1+  0.006  0.142  0.715  0.001
  Li_i5  Li1+  0.406  0.142  0.715  0.001
  Li_i5  Li1+  0.206  0.942  0.315  0.001
  Li_i5  Li1+  0.806  0.342  0.515  0.001
  Li_i5  Li1+  0.806  0.942  0.515  0.001
  Li_i5  Li1+  0.606  0.342  0.115  0.001
  Li_i5  Li1+  0.406  0.942  0.115  0.001
  Li_i5  Li1+  0.606  0.742  0.715  0.001
  Li_i5  Li1+  0.006  0.942  0.715  0.001
  Li_i5  Li1+  0.206  0.742  0.115  0.001
  Li_i5  Li1+  0.006  0.742  0.115  0.001
  Li_i5  Li1+  0.806  0.342  0.715  0.001
  Li_i5  Li1+  0.806  0.942  0.715  0.001
  Li_i5  Li1+  0.206  0.542  0.115  0.001
  Li_i5  Li1+  0.006  0.942  0.115  0.001
  Li_i5  Li1+  0.606  0.342  0.315  0.001
  Li_i5  Li1+  0.606  0.742  0.915  0.001
  Li_i5  Li1+  0.406  0.542  0.515  0.001
  Li_i5  Li1+  0.406  0.942  0.315  0.001
  Li_i5  Li1+  0.806  0.942  0.915  0.001
  Li_i5  Li1+  0.806  0.342  0.915  0.001
  Li_i5  Li1+  0.406  0.142  0.915  0.001
  Li_i5  Li1+  0.006  0.542  0.115  0.001
  Li_i6  Li1+  0.629  0.150  0.389  0.001
  Li_i6  Li1+  0.429  0.150  0.789  0.001
  Li_i6  Li1+  0.829  0.550  0.389  0.001
  Li_i6  Li1+  0.029  0.150  0.389  0.001
  Li_i6  Li1+  0.229  0.950  0.589  0.001
  Li_i6  Li1+  0.029  0.150  0.789  0.001
  Li_i6  Li1+  0.029  0.350  0.189  0.001
  Li_i6  Li1+  0.429  0.750  0.789  0.001
  Li_i6  Li1+  0.629  0.550  0.589  0.001
  Li_i6  Li1+  0.629  0.950  0.989  0.001
  Li_i6  Li1+  0.229  0.150  0.989  0.001
  Li_i6  Li1+  0.429  0.550  0.389  0.001
  Li_i6  Li1+  0.829  0.550  0.589  0.001
  Li_i6  Li1+  0.629  0.150  0.589  0.001
  Li_i6  Li1+  0.029  0.950  0.189  0.001
  Li_i6  Li1+  0.229  0.550  0.589  0.001
  Li_i6  Li1+  0.429  0.150  0.989  0.001
  Li_i6  Li1+  0.229  0.750  0.589  0.001
  Li_i6  Li1+  0.629  0.550  0.789  0.001
  Li_i6  Li1+  0.829  0.150  0.189  0.001
  Li_i6  Li1+  0.829  0.550  0.789  0.001
  Li_i6  Li1+  0.029  0.550  0.989  0.001
  Li_i6  Li1+  0.229  0.350  0.789  0.001
  Li_i6  Li1+  0.429  0.750  0.989  0.001
  Li_i6  Li1+  0.629  0.150  0.789  0.001
  Li_i6  Li1+  0.229  0.950  0.789  0.001
  Li_i6  Li1+  0.029  0.950  0.789  0.001
  Li_i6  Li1+  0.229  0.150  0.389  0.001
  Li_i6  Li1+  0.829  0.550  0.989  0.001
  Li_i6  Li1+  0.629  0.550  0.989  0.001
  Li_i6  Li1+  0.829  0.150  0.389  0.001
  Li_i6  Li1+  0.029  0.750  0.789  0.001
  Li_i6  Li1+  0.429  0.550  0.589  0.001
  Li_i6  Li1+  0.429  0.350  0.189  0.001
  Li_i6  Li1+  0.029  0.550  0.389  0.001
  Li_i6  Li1+  0.429  0.950  0.189  0.001
  Li_i6  Li1+  0.029  0.750  0.389  0.001
  Li_i6  Li1+  0.629  0.150  0.989  0.001
  Li_i6  Li1+  0.829  0.750  0.189  0.001
  Li_i6  Li1+  0.029  0.150  0.989  0.001
  Li_i6  Li1+  0.829  0.150  0.589  0.001
  Li_i6  Li1+  0.629  0.750  0.189  0.001
  Li_i6  Li1+  0.229  0.750  0.789  0.001
  Li_i6  Li1+  0.229  0.950  0.989  0.001
  Li_i6  Li1+  0.229  0.550  0.789  0.001
  Li_i6  Li1+  0.429  0.550  0.789  0.001
  Li_i6  Li1+  0.829  0.750  0.389  0.001
  Li_i6  Li1+  0.029  0.350  0.389  0.001
  Li_i6  Li1+  0.429  0.950  0.389  0.001
  Li_i6  Li1+  0.829  0.150  0.789  0.001
  Li_i6  Li1+  0.229  0.350  0.189  0.001
  Li_i6  Li1+  0.629  0.750  0.389  0.001
  Li_i6  Li1+  0.629  0.350  0.189  0.001
  Li_i6  Li1+  0.429  0.350  0.389  0.001
  Li_i6  Li1+  0.829  0.750  0.589  0.001
  Li_i6  Li1+  0.229  0.350  0.989  0.001
  Li_i6  Li1+  0.029  0.550  0.189  0.001
  Li_i6  Li1+  0.029  0.350  0.989  0.001
  Li_i6  Li1+  0.829  0.150  0.989  0.001
  Li_i6  Li1+  0.029  0.950  0.389  0.001
  Li_i6  Li1+  0.429  0.150  0.189  0.001
  Li_i6  Li1+  0.629  0.750  0.589  0.001
  Li_i6  Li1+  0.429  0.950  0.589  0.001
  Li_i6  Li1+  0.829  0.750  0.789  0.001
  Li_i6  Li1+  0.629  0.350  0.389  0.001
  Li_i6  Li1+  0.429  0.550  0.989  0.001
  Li_i6  Li1+  0.029  0.950  0.989  0.001
  Li_i6  Li1+  0.229  0.750  0.989  0.001
  Li_i6  Li1+  0.429  0.350  0.589  0.001
  Li_i6  Li1+  0.829  0.350  0.189  0.001
  Li_i6  Li1+  0.229  0.150  0.589  0.001
  Li_i6  Li1+  0.229  0.550  0.989  0.001
  Li_i6  Li1+  0.829  0.750  0.989  0.001
  Li_i6  Li1+  0.629  0.750  0.789  0.001
  Li_i6  Li1+  0.029  0.550  0.789  0.001
  Li_i6  Li1+  0.029  0.150  0.189  0.001
  Li_i6  Li1+  0.629  0.350  0.589  0.001
  Li_i6  Li1+  0.029  0.750  0.989  0.001
  Li_i6  Li1+  0.829  0.350  0.389  0.001
  Li_i6  Li1+  0.229  0.550  0.189  0.001
  Li_i6  Li1+  0.829  0.950  0.189  0.001
  Li_i6  Li1+  0.429  0.950  0.789  0.001
  Li_i6  Li1+  0.429  0.750  0.189  0.001
  Li_i6  Li1+  0.629  0.750  0.989  0.001
  Li_i6  Li1+  0.229  0.350  0.389  0.001
  Li_i6  Li1+  0.429  0.350  0.789  0.001
  Li_i6  Li1+  0.429  0.150  0.389  0.001
  Li_i6  Li1+  0.829  0.350  0.589  0.001
  Li_i6  Li1+  0.629  0.350  0.789  0.001
  Li_i6  Li1+  0.229  0.950  0.189  0.001
  Li_i6  Li1+  0.029  0.350  0.789  0.001
  Li_i6  Li1+  0.029  0.750  0.589  0.001
  Li_i6  Li1+  0.829  0.950  0.389  0.001
  Li_i6  Li1+  0.229  0.750  0.189  0.001
  Li_i6  Li1+  0.629  0.950  0.189  0.001
  Li_i6  Li1+  0.429  0.950  0.989  0.001
  Li_i6  Li1+  0.829  0.350  0.789  0.001
  Li_i6  Li1+  0.029  0.350  0.589  0.001
  Li_i6  Li1+  0.029  0.750  0.189  0.001
  Li_i6  Li1+  0.429  0.750  0.389  0.001
  Li_i6  Li1+  0.629  0.350  0.989  0.001
  Li_i6  Li1+  0.429  0.350  0.989  0.001
  Li_i6  Li1+  0.229  0.150  0.789  0.001
  Li_i6  Li1+  0.629  0.950  0.389  0.001
  Li_i6  Li1+  0.829  0.950  0.589  0.001
  Li_i6  Li1+  0.829  0.350  0.989  0.001
  Li_i6  Li1+  0.429  0.150  0.589  0.001
  Li_i6  Li1+  0.029  0.950  0.589  0.001
  Li_i6  Li1+  0.229  0.950  0.389  0.001
  Li_i6  Li1+  0.229  0.150  0.189  0.001
  Li_i6  Li1+  0.629  0.150  0.189  0.001
  Li_i6  Li1+  0.629  0.550  0.189  0.001
  Li_i6  Li1+  0.229  0.350  0.589  0.001
  Li_i6  Li1+  0.829  0.950  0.789  0.001
  Li_i6  Li1+  0.629  0.950  0.589  0.001
  Li_i6  Li1+  0.229  0.550  0.389  0.001
  Li_i6  Li1+  0.029  0.150  0.589  0.001
  Li_i6  Li1+  0.429  0.750  0.589  0.001
  Li_i6  Li1+  0.829  0.550  0.189  0.001
  Li_i6  Li1+  0.429  0.550  0.189  0.001
  Li_i6  Li1+  0.229  0.750  0.389  0.001
  Li_i6  Li1+  0.829  0.950  0.989  0.001
  Li_i6  Li1+  0.029  0.550  0.589  0.001
  Li_i6  Li1+  0.629  0.550  0.389  0.001
  Li_i6  Li1+  0.629  0.950  0.789  0.001
  Li_i7  Li1+  0.998  0.425  0.450  0.001
  Li_i7  Li1+  0.398  0.225  0.050  0.001
  Li_i7  Li1+  0.798  0.625  0.050  0.001
  Li_i7  Li1+  0.598  0.625  0.050  0.001
  Li_i7  Li1+  0.198  0.425  0.850  0.001
  Li_i7  Li1+  0.998  0.025  0.250  0.001
  Li_i7  Li1+  0.398  0.025  0.450  0.001
  Li_i7  Li1+  0.398  0.825  0.450  0.001
  Li_i7  Li1+  0.598  0.225  0.850  0.001
  Li_i7  Li1+  0.998  0.425  0.650  0.001
  Li_i7  Li1+  0.398  0.625  0.450  0.001
  Li_i7  Li1+  0.798  0.225  0.250  0.001
  Li_i7  Li1+  0.198  0.225  0.650  0.001
  Li_i7  Li1+  0.798  0.625  0.250  0.001
  Li_i7  Li1+  0.198  0.025  0.850  0.001
  Li_i7  Li1+  0.598  0.825  0.650  0.001
  Li_i7  Li1+  0.998  0.025  0.450  0.001
  Li_i7  Li1+  0.398  0.225  0.850  0.001
  Li_i7  Li1+  0.998  0.425  0.850  0.001
  Li_i7  Li1+  0.598  0.025  0.650  0.001
  Li_i7  Li1+  0.198  0.825  0.450  0.001
  Li_i7  Li1+  0.598  0.625  0.250  0.001
  Li_i7  Li1+  0.398  0.425  0.650  0.001
  Li_i7  Li1+  0.198  0.225  0.050  0.001
  Li_i7  Li1+  0.798  0.625  0.450  0.001
  Li_i7  Li1+  0.798  0.225  0.450  0.001
  Li_i7  Li1+  0.998  0.025  0.650  0.001
  Li_i7  Li1+  0.198  0.625  0.250  0.001
  Li_i7  Li1+  0.598  0.425  0.050  0.001
  Li_i7  Li1+  0.998  0.625  0.050  0.001
  Li_i7  Li1+  0.198  0.625  0.650  0.001
  Li_i7  Li1+  0.598  0.825  0.850  0.001
  Li_i7  Li1+  0.398  0.825  0.650  0.001
  Li_i7  Li1+  0.398  0.025  0.050  0.001
  Li_i7  Li1+  0.398  0.625  0.650  0.001
  Li_i7  Li1+  0.598  0.025  0.850  0.001
  Li_i7  Li1+  0.998  0.025  0.850  0.001
  Li_i7  Li1+  0.798  0.625  0.650  0.001
  Li_i7  Li1+  0.998  0.625  0.250  0.001
  Li_i7  Li1+  0.798  0.225  0.650  0.001
  Li_i7  Li1+  0.398  0.225  0.250  0.001
  Li_i7  Li1+  0.598  0.625  0.450  0.001
  Li_i7  Li1+  0.198  0.825  0.050  0.001
  Li_i7  Li1+  0.398  0.025  0.650  0.001
  Li_i7  Li1+  0.198  0.025  0.050  0.001
  Li_i7  Li1+  0.598  0.425  0.250  0.001
  Li_i7  Li1+  0.798  0.025  0.050  0.001
  Li_i7  Li1+  0.998  0.625  0.450  0.001
  Li_i7  Li1+  0.798  0.625  0.850  0.001
  Li_i7  Li1+  0.998  0.225  0.050  0.001
  Li_i7  Li1+  0.398  0.425  0.050  0.001
  Li_i7  Li1+  0.398  0.425  0.850  0.001
  Li_i7  Li1+  0.798  0.225  0.850  0.001
  Li_i7  Li1+  0.398  0.825  0.850  0.001
  Li_i7  Li1+  0.198  0.425  0.650  0.001
  Li_i7  Li1+  0.598  0.225  0.050  0.001
  Li_i7  Li1+  0.598  0.625  0.650  0.001
  Li_i7  Li1+  0.998  0.625  0.650  0.001
  Li_i7  Li1+  0.198  0.025  0.250  0.001
  Li_i7  Li1+  0.998  0.225  0.250  0.001
  Li_i7  Li1+  0.198  0.225  0.250  0.001
  Li_i7  Li1+  0.798  0.825  0.050  0.001
  Li_i7  Li1+  0.798  0.025  0.250  0.001
  Li_i7  Li1+  0.398  0.625  0.850  0.001
  Li_i7  Li1+  0.798  0.425  0.050  0.001
  Li_i7  Li1+  0.198  0.825  0.650  0.001
  Li_i7  Li1+  0.198  0.025  0.650  0.001
  Li_i7  Li1+  0.998  0.625  0.850  0.001
  Li_i7  Li1+  0.398  0.225  0.450  0.001
  Li_i7  Li1+  0.998  0.225  0.450  0.001
  Li_i7  Li1+  0.598  0.425  0.450  0.001
  Li_i7  Li1+  0.198  0.425  0.450  0.001
  Li_i7  Li1+  0.798  0.825  0.250  0.001
  Li_i7  Li1+  0.598  0.025  0.050  0.001
  Li_i7  Li1+  0.598  0.625  0.850  0.001
  Li_i7  Li1+  0.198  0.025  0.450  0.001
  Li_i7  Li1+  0.998  0.825  0.050  0.001
  Li_i7  Li1+  0.798  0.425  0.250  0.001
  Li_i7  Li1+  0.798  0.025  0.450  0.001
  Li_i7  Li1+  0.998  0.225  0.650  0.001
  Li_i7  Li1+  0.598  0.225  0.250  0.001
  Li_i7  Li1+  0.398  0.625  0.050  0.001
  Li_i7  Li1+  0.398  0.025  0.850  0.001
  Li_i7  Li1+  0.798  0.825  0.450  0.001
  Li_i7  Li1+  0.398  0.025  0.250  0.001
  Li_i7  Li1+  0.398  0.825  0.050  0.001
  Li_i7  Li1+  0.598  0.425  0.650  0.001
  Li_i7  Li1+  0.398  0.425  0.250  0.001
  Li_i7  Li1+  0.998  0.225  0.850  0.001
  Li_i7  Li1+  0.998  0.825  0.250  0.001
  Li_i7  Li1+  0.798  0.425  0.450  0.001
  Li_i7  Li1+  0.598  0.825  0.050  0.001
  Li_i7  Li1+  0.798  0.025  0.650  0.001
  Li_i7  Li1+  0.198  0.625  0.050  0.001
  Li_i7  Li1+  0.798  0.825  0.650  0.001
  Li_i7  Li1+  0.198  0.625  0.450  0.001
  Li_i7  Li1+  0.198  0.825  0.250  0.001
  Li_i7  Li1+  0.598  0.225  0.450  0.001
  Li_i7  Li1+  0.198  0.625  0.850  0.001
  Li_i7  Li1+  0.598  0.025  0.250  0.001
  Li_i7  Li1+  0.798  0.425  0.650  0.001
  Li_i7  Li1+  0.198  0.225  0.450  0.001
  Li_i7  Li1+  0.998  0.825  0.450  0.001
  Li_i7  Li1+  0.998  0.425  0.050  0.001
  Li_i7  Li1+  0.398  0.225  0.650  0.001
  Li_i7  Li1+  0.598  0.825  0.250  0.001
  Li_i7  Li1+  0.798  0.825  0.850  0.001
  Li_i7  Li1+  0.598  0.425  0.850  0.001
  Li_i7  Li1+  0.798  0.025  0.850  0.001
  Li_i7  Li1+  0.398  0.625  0.250  0.001
  Li_i7  Li1+  0.398  0.825  0.250  0.001
  Li_i7  Li1+  0.198  0.425  0.250  0.001
  Li_i7  Li1+  0.998  0.825  0.650  0.001
  Li_i7  Li1+  0.998  0.425  0.250  0.001
  Li_i7  Li1+  0.798  0.425  0.850  0.001
  Li_i7  Li1+  0.198  0.825  0.850  0.001
  Li_i7  Li1+  0.598  0.225  0.650  0.001
  Li_i7  Li1+  0.398  0.425  0.450  0.001
  Li_i7  Li1+  0.998  0.025  0.050  0.001
  Li_i7  Li1+  0.198  0.225  0.850  0.001
  Li_i7  Li1+  0.598  0.825  0.450  0.001
  Li_i7  Li1+  0.998  0.825  0.850  0.001
  Li_i7  Li1+  0.598  0.025  0.450  0.001
  Li_i7  Li1+  0.798  0.225  0.050  0.001
  Li_i7  Li1+  0.198  0.425  0.050  0.001
  Li_i8  Li1+  0.217  0.442  0.653  0.001
  Li_i8  Li1+  0.617  0.042  0.253  0.001
  Li_i8  Li1+  0.617  0.642  0.653  0.001
  Li_i8  Li1+  0.417  0.642  0.853  0.001
  Li_i8  Li1+  0.817  0.042  0.653  0.001
  Li_i8  Li1+  0.617  0.242  0.853  0.001
  Li_i8  Li1+  0.417  0.442  0.653  0.001
  Li_i8  Li1+  0.017  0.842  0.253  0.001
  Li_i8  Li1+  0.817  0.442  0.853  0.001
  Li_i8  Li1+  0.017  0.242  0.453  0.001
  Li_i8  Li1+  0.017  0.042  0.653  0.001
  Li_i8  Li1+  0.217  0.842  0.453  0.001
  Li_i8  Li1+  0.417  0.042  0.453  0.001
  Li_i8  Li1+  0.217  0.042  0.253  0.001
  Li_i8  Li1+  0.617  0.642  0.853  0.001
  Li_i8  Li1+  0.817  0.042  0.853  0.001
  Li_i8  Li1+  0.017  0.442  0.653  0.001
  Li_i8  Li1+  0.217  0.442  0.053  0.001
  Li_i8  Li1+  0.617  0.442  0.053  0.001
  Li_i8  Li1+  0.617  0.042  0.453  0.001
  Li_i8  Li1+  0.817  0.642  0.053  0.001
  Li_i8  Li1+  0.417  0.842  0.053  0.001
  Li_i8  Li1+  0.417  0.242  0.653  0.001
  Li_i8  Li1+  0.017  0.242  0.653  0.001
  Li_i8  Li1+  0.417  0.442  0.853  0.001
  Li_i8  Li1+  0.217  0.042  0.853  0.001
  Li_i8  Li1+  0.217  0.242  0.453  0.001
  Li_i8  Li1+  0.617  0.842  0.053  0.001
  Li_i8  Li1+  0.817  0.242  0.053  0.001
  Li_i8  Li1+  0.217  0.642  0.653  0.001
  Li_i8  Li1+  0.817  0.642  0.253  0.001
  Li_i8  Li1+  0.017  0.642  0.253  0.001
  Li_i8  Li1+  0.617  0.442  0.253  0.001
  Li_i8  Li1+  0.217  0.442  0.853  0.001
  Li_i8  Li1+  0.617  0.042  0.653  0.001
  Li_i8  Li1+  0.017  0.242  0.853  0.001
  Li_i8  Li1+  0.417  0.842  0.253  0.001
  Li_i8  Li1+  0.417  0.042  0.653  0.001
  Li_i8  Li1+  0.217  0.842  0.653  0.001
  Li_i8  Li1+  0.817  0.242  0.253  0.001
  Li_i8  Li1+  0.817  0.642  0.453  0.001
  Li_i8  Li1+  0.617  0.842  0.253  0.001
  Li_i8  Li1+  0.417  0.242  0.853  0.001
  Li_i8  Li1+  0.017  0.842  0.853  0.001
  Li_i8  Li1+  0.017  0.442  0.453  0.001
  Li_i8  Li1+  0.617  0.442  0.453  0.001
  Li_i8  Li1+  0.417  0.642  0.053  0.001
  Li_i8  Li1+  0.017  0.642  0.653  0.001
  Li_i8  Li1+  0.017  0.042  0.253  0.001
  Li_i8  Li1+  0.017  0.842  0.453  0.001
  Li_i8  Li1+  0.817  0.242  0.453  0.001
  Li_i8  Li1+  0.817  0.642  0.653  0.001
  Li_i8  Li1+  0.617  0.042  0.853  0.001
  Li_i8  Li1+  0.617  0.842  0.453  0.001
  Li_i8  Li1+  0.417  0.842  0.453  0.001
  Li_i8  Li1+  0.017  0.442  0.253  0.001
  Li_i8  Li1+  0.217  0.442  0.253  0.001
  Li_i8  Li1+  0.217  0.642  0.853  0.001
  Li_i8  Li1+  0.617  0.442  0.653  0.001
  Li_i8  Li1+  0.417  0.042  0.853  0.001
  Li_i8  Li1+  0.017  0.842  0.053  0.001
  Li_i8  Li1+  0.817  0.242  0.653  0.001
  Li_i8  Li1+  0.817  0.642  0.853  0.001
  Li_i8  Li1+  0.417  0.442  0.053  0.001
  Li_i8  Li1+  0.217  0.842  0.853  0.001
  Li_i8  Li1+  0.617  0.842  0.653  0.001
  Li_i8  Li1+  0.217  0.642  0.053  0.001
  Li_i8  Li1+  0.417  0.642  0.253  0.001
  Li_i8  Li1+  0.617  0.242  0.053  0.001
  Li_i8  Li1+  0.217  0.042  0.453  0.001
  Li_i8  Li1+  0.217  0.242  0.653  0.001
  Li_i8  Li1+  0.617  0.442  0.853  0.001
  Li_i8  Li1+  0.817  0.842  0.053  0.001
  Li_i8  Li1+  0.817  0.242  0.853  0.001
  Li_i8  Li1+  0.017  0.442  0.053  0.001
  Li_i8  Li1+  0.417  0.842  0.653  0.001
  Li_i8  Li1+  0.217  0.242  0.053  0.001
  Li_i8  Li1+  0.017  0.042  0.053  0.001
  Li_i8  Li1+  0.617  0.842  0.853  0.001
  Li_i8  Li1+  0.017  0.642  0.053  0.001
  Li_i8  Li1+  0.417  0.242  0.053  0.001
  Li_i8  Li1+  0.017  0.242  0.253  0.001
  Li_i8  Li1+  0.617  0.242  0.253  0.001
  Li_i8  Li1+  0.417  0.442  0.253  0.001
  Li_i8  Li1+  0.217  0.842  0.053  0.001
  Li_i8  Li1+  0.617  0.642  0.053  0.001
  Li_i8  Li1+  0.817  0.842  0.253  0.001
  Li_i8  Li1+  0.417  0.042  0.053  0.001
  Li_i8  Li1+  0.817  0.442  0.053  0.001
  Li_i8  Li1+  0.417  0.642  0.453  0.001
  Li_i8  Li1+  0.217  0.042  0.053  0.001
  Li_i8  Li1+  0.817  0.042  0.053  0.001
  Li_i8  Li1+  0.417  0.842  0.853  0.001
  Li_i8  Li1+  0.217  0.442  0.453  0.001
  Li_i8  Li1+  0.017  0.042  0.853  0.001
  Li_i8  Li1+  0.217  0.642  0.253  0.001
  Li_i8  Li1+  0.017  0.642  0.453  0.001
  Li_i8  Li1+  0.617  0.242  0.453  0.001
  Li_i8  Li1+  0.817  0.442  0.253  0.001
  Li_i8  Li1+  0.617  0.642  0.253  0.001
  Li_i8  Li1+  0.817  0.842  0.453  0.001
  Li_i8  Li1+  0.017  0.042  0.453  0.001
  Li_i8  Li1+  0.017  0.842  0.653  0.001
  Li_i8  Li1+  0.417  0.242  0.253  0.001
  Li_i8  Li1+  0.817  0.042  0.253  0.001
  Li_i8  Li1+  0.217  0.242  0.853  0.001
  Li_i8  Li1+  0.217  0.042  0.653  0.001
  Li_i8  Li1+  0.417  0.642  0.653  0.001
  Li_i8  Li1+  0.417  0.442  0.453  0.001
  Li_i8  Li1+  0.617  0.042  0.053  0.001
  Li_i8  Li1+  0.217  0.842  0.253  0.001
  Li_i8  Li1+  0.817  0.842  0.653  0.001
  Li_i8  Li1+  0.817  0.442  0.453  0.001
  Li_i8  Li1+  0.617  0.642  0.453  0.001
  Li_i8  Li1+  0.617  0.242  0.653  0.001
  Li_i8  Li1+  0.017  0.442  0.853  0.001
  Li_i8  Li1+  0.417  0.042  0.253  0.001
  Li_i8  Li1+  0.817  0.042  0.453  0.001
  Li_i8  Li1+  0.217  0.242  0.253  0.001
  Li_i8  Li1+  0.017  0.642  0.853  0.001
  Li_i8  Li1+  0.017  0.242  0.053  0.001
  Li_i8  Li1+  0.817  0.842  0.853  0.001
  Li_i8  Li1+  0.217  0.642  0.453  0.001
  Li_i8  Li1+  0.817  0.442  0.653  0.001
  Li_i8  Li1+  0.417  0.242  0.453  0.001
  Li_i9  Li1+  0.198  0.592  0.047  0.001
  Li_i9  Li1+  0.198  0.592  0.447  0.001
  Li_i9  Li1+  0.798  0.592  0.447  0.001
  Li_i9  Li1+  0.398  0.192  0.447  0.001
  Li_i9  Li1+  0.598  0.192  0.247  0.001
  Li_i9  Li1+  0.598  0.392  0.247  0.001
  Li_i9  Li1+  0.198  0.792  0.847  0.001
  Li_i9  Li1+  0.598  0.992  0.647  0.001
  Li_i9  Li1+  0.998  0.392  0.047  0.001
  Li_i9  Li1+  0.798  0.992  0.247  0.001
  Li_i9  Li1+  0.198  0.592  0.247  0.001
  Li_i9  Li1+  0.998  0.792  0.047  0.001
  Li_i9  Li1+  0.398  0.192  0.047  0.001
  Li_i9  Li1+  0.598  0.792  0.447  0.001
  Li_i9  Li1+  0.798  0.392  0.047  0.001
  Li_i9  Li1+  0.398  0.592  0.847  0.001
  Li_i9  Li1+  0.798  0.592  0.647  0.001
  Li_i9  Li1+  0.398  0.992  0.447  0.001
  Li_i9  Li1+  0.198  0.192  0.447  0.001
  Li_i9  Li1+  0.398  0.392  0.047  0.001
  Li_i9  Li1+  0.998  0.392  0.247  0.001
  Li_i9  Li1+  0.398  0.792  0.647  0.001
  Li_i9  Li1+  0.998  0.792  0.247  0.001
  Li_i9  Li1+  0.798  0.992  0.447  0.001
  Li_i9  Li1+  0.598  0.592  0.447  0.001
  Li_i9  Li1+  0.198  0.992  0.647  0.001
  Li_i9  Li1+  0.398  0.392  0.647  0.001
  Li_i9  Li1+  0.598  0.992  0.847  0.001
  Li_i9  Li1+  0.598  0.392  0.447  0.001
  Li_i9  Li1+  0.798  0.392  0.247  0.001
  Li_i9  Li1+  0.798  0.592  0.847  0.001
  Li_i9  Li1+  0.598  0.192  0.447  0.001
  Li_i9  Li1+  0.998  0.392  0.447  0.001
  Li_i9  Li1+  0.998  0.792  0.447  0.001
  Li_i9  Li1+  0.398  0.592  0.247  0.001
  Li_i9  Li1+  0.598  0.792  0.647  0.001
  Li_i9  Li1+  0.798  0.992  0.647  0.001
  Li_i9  Li1+  0.198  0.792  0.247  0.001
  Li_i9  Li1+  0.198  0.992  0.247  0.001
  Li_i9  Li1+  0.198  0.192  0.047  0.001
  Li_i9  Li1+  0.198  0.392  0.447  0.001
  Li_i9  Li1+  0.198  0.192  0.847  0.001
  Li_i9  Li1+  0.598  0.592  0.647  0.001
  Li_i9  Li1+  0.398  0.992  0.647  0.001
  Li_i9  Li1+  0.998  0.392  0.647  0.001
  Li_i9  Li1+  0.998  0.792  0.647  0.001
  Li_i9  Li1+  0.398  0.792  0.047  0.001
  Li_i9  Li1+  0.798  0.792  0.047  0.001
  Li_i9  Li1+  0.798  0.392  0.447  0.001
  Li_i9  Li1+  0.798  0.192  0.047  0.001
  Li_i9  Li1+  0.798  0.992  0.847  0.001
  Li_i9  Li1+  0.398  0.192  0.647  0.001
  Li_i9  Li1+  0.598  0.392  0.647  0.001
  Li_i9  Li1+  0.198  0.192  0.647  0.001
  Li_i9  Li1+  0.598  0.792  0.847  0.001
  Li_i9  Li1+  0.398  0.792  0.847  0.001
  Li_i9  Li1+  0.998  0.392  0.847  0.001
  Li_i9  Li1+  0.998  0.792  0.847  0.001
  Li_i9  Li1+  0.598  0.192  0.647  0.001
  Li_i9  Li1+  0.198  0.792  0.647  0.001
  Li_i9  Li1+  0.198  0.392  0.647  0.001
  Li_i9  Li1+  0.798  0.792  0.247  0.001
  Li_i9  Li1+  0.198  0.792  0.047  0.001
  Li_i9  Li1+  0.798  0.392  0.647  0.001
  Li_i9  Li1+  0.998  0.192  0.047  0.001
  Li_i9  Li1+  0.398  0.592  0.447  0.001
  Li_i9  Li1+  0.798  0.192  0.247  0.001
  Li_i9  Li1+  0.398  0.392  0.247  0.001
  Li_i9  Li1+  0.998  0.992  0.047  0.001
  Li_i9  Li1+  0.598  0.592  0.847  0.001
  Li_i9  Li1+  0.398  0.392  0.847  0.001
  Li_i9  Li1+  0.398  0.992  0.847  0.001
  Li_i9  Li1+  0.598  0.992  0.047  0.001
  Li_i9  Li1+  0.998  0.592  0.047  0.001
  Li_i9  Li1+  0.598  0.392  0.847  0.001
  Li_i9  Li1+  0.798  0.792  0.447  0.001
  Li_i9  Li1+  0.398  0.192  0.247  0.001
  Li_i9  Li1+  0.198  0.392  0.247  0.001
  Li_i9  Li1+  0.998  0.192  0.247  0.001
  Li_i9  Li1+  0.198  0.392  0.847  0.001
  Li_i9  Li1+  0.798  0.392  0.847  0.001
  Li_i9  Li1+  0.598  0.192  0.847  0.001
  Li_i9  Li1+  0.398  0.792  0.247  0.001
  Li_i9  Li1+  0.798  0.192  0.447  0.001
  Li_i9  Li1+  0.998  0.992  0.247  0.001
  Li_i9  Li1+  0.998  0.592  0.247  0.001
  Li_i9  Li1+  0.398  0.992  0.047  0.001
  Li_i9  Li1+  0.198  0.992  0.847  0.001
  Li_i9  Li1+  0.198  0.992  0.047  0.001
  Li_i9  Li1+  0.598  0.792  0.047  0.001
  Li_i9  Li1+  0.798  0.792  0.647  0.001
  Li_i9  Li1+  0.598  0.992  0.247  0.001
  Li_i9  Li1+  0.998  0.192  0.447  0.001
  Li_i9  Li1+  0.198  0.992  0.447  0.001
  Li_i9  Li1+  0.398  0.192  0.847  0.001
  Li_i9  Li1+  0.798  0.592  0.047  0.001
  Li_i9  Li1+  0.198  0.192  0.247  0.001
  Li_i9  Li1+  0.198  0.592  0.847  0.001
  Li_i9  Li1+  0.998  0.992  0.447  0.001
  Li_i9  Li1+  0.998  0.592  0.447  0.001
  Li_i9  Li1+  0.598  0.592  0.047  0.001
  Li_i9  Li1+  0.798  0.192  0.647  0.001
  Li_i9  Li1+  0.598  0.192  0.047  0.001
  Li_i9  Li1+  0.398  0.592  0.647  0.001
  Li_i9  Li1+  0.798  0.792  0.847  0.001
  Li_i9  Li1+  0.998  0.192  0.647  0.001
  Li_i9  Li1+  0.598  0.392  0.047  0.001
  Li_i9  Li1+  0.198  0.792  0.447  0.001
  Li_i9  Li1+  0.398  0.392  0.447  0.001
  Li_i9  Li1+  0.598  0.992  0.447  0.001
  Li_i9  Li1+  0.998  0.992  0.647  0.001
  Li_i9  Li1+  0.998  0.592  0.647  0.001
  Li_i9  Li1+  0.798  0.592  0.247  0.001
  Li_i9  Li1+  0.398  0.592  0.047  0.001
  Li_i9  Li1+  0.398  0.992  0.247  0.001
  Li_i9  Li1+  0.598  0.792  0.247  0.001
  Li_i9  Li1+  0.398  0.792  0.447  0.001
  Li_i9  Li1+  0.198  0.392  0.047  0.001
  Li_i9  Li1+  0.998  0.192  0.847  0.001
  Li_i9  Li1+  0.198  0.592  0.647  0.001
  Li_i9  Li1+  0.798  0.992  0.047  0.001
  Li_i9  Li1+  0.998  0.992  0.847  0.001
  Li_i9  Li1+  0.798  0.192  0.847  0.001
  Li_i9  Li1+  0.998  0.592  0.847  0.001
  Li_i9  Li1+  0.598  0.592  0.247  0.001
  Li_i10  Li1+  0.398  0.400  0.251  0.001
  Li_i10  Li1+  0.998  0.200  0.251  0.001
  Li_i10  Li1+  0.998  0.600  0.051  0.001
  Li_i10  Li1+  0.598  0.800  0.051  0.001
  Li_i10  Li1+  0.598  0.200  0.051  0.001
  Li_i10  Li1+  0.798  0.000  0.251  0.001
  Li_i10  Li1+  0.198  0.800  0.851  0.001
  Li_i10  Li1+  0.798  0.800  0.651  0.001
  Li_i10  Li1+  0.798  0.600  0.051  0.001
  Li_i10  Li1+  0.398  0.000  0.251  0.001
  Li_i10  Li1+  0.598  0.400  0.051  0.001
  Li_i10  Li1+  0.598  0.600  0.051  0.001
  Li_i10  Li1+  0.198  0.000  0.651  0.001
  Li_i10  Li1+  0.798  0.200  0.651  0.001
  Li_i10  Li1+  0.998  0.600  0.251  0.001
  Li_i10  Li1+  0.998  0.200  0.451  0.001
  Li_i10  Li1+  0.198  -0.000  0.851  0.001
  Li_i10  Li1+  0.398  0.600  0.651  0.001
  Li_i10  Li1+  0.198  0.200  0.851  0.001
  Li_i10  Li1+  0.598  0.000  0.251  0.001
  Li_i10  Li1+  0.398  0.800  0.451  0.001
  Li_i10  Li1+  0.598  0.800  0.251  0.001
  Li_i10  Li1+  0.798  0.800  0.851  0.001
  Li_i10  Li1+  0.798  0.600  0.251  0.001
  Li_i10  Li1+  0.398  0.200  0.251  0.001
  Li_i10  Li1+  0.798  0.000  0.451  0.001
  Li_i10  Li1+  0.998  0.600  0.451  0.001
  Li_i10  Li1+  0.198  0.600  0.251  0.001
  Li_i10  Li1+  0.998  0.200  0.651  0.001
  Li_i10  Li1+  0.198  0.600  0.851  0.001
  Li_i10  Li1+  0.198  0.000  0.251  0.001
  Li_i10  Li1+  0.598  0.200  0.251  0.001
  Li_i10  Li1+  0.798  0.200  0.851  0.001
  Li_i10  Li1+  0.398  0.600  0.051  0.001
  Li_i10  Li1+  0.198  0.000  0.451  0.001
  Li_i10  Li1+  0.598  0.600  0.251  0.001
  Li_i10  Li1+  0.598  0.400  0.251  0.001
  Li_i10  Li1+  0.998  -0.000  0.051  0.001
  Li_i10  Li1+  0.798  0.600  0.451  0.001
  Li_i10  Li1+  0.998  0.600  0.651  0.001
  Li_i10  Li1+  0.398  0.200  0.851  0.001
  Li_i10  Li1+  0.398  0.400  0.451  0.001
  Li_i10  Li1+  0.998  0.200  0.851  0.001
  Li_i10  Li1+  0.398  -0.000  0.851  0.001
  Li_i10  Li1+  0.798  0.000  0.651  0.001
  Li_i10  Li1+  0.198  0.200  0.451  0.001
  Li_i10  Li1+  0.598  0.800  0.451  0.001
  Li_i10  Li1+  0.598  0.000  0.451  0.001
  Li_i10  Li1+  0.798  0.400  0.051  0.001
  Li_i10  Li1+  0.198  0.400  0.051  0.001
  Li_i10  Li1+  0.398  0.600  0.851  0.001
  Li_i10  Li1+  0.398  0.800  0.651  0.001
  Li_i10  Li1+  0.998  0.600  0.851  0.001
  Li_i10  Li1+  0.998  0.000  0.251  0.001
  Li_i10  Li1+  0.198  0.600  0.051  0.001
  Li_i10  Li1+  0.798  0.600  0.651  0.001
  Li_i10  Li1+  0.598  0.200  0.451  0.001
  Li_i10  Li1+  0.198  0.800  0.251  0.001
  Li_i10  Li1+  0.998  0.400  0.051  0.001
  Li_i10  Li1+  0.198  0.800  0.651  0.001
  Li_i10  Li1+  0.598  0.600  0.451  0.001
  Li_i10  Li1+  0.598  0.400  0.451  0.001
  Li_i10  Li1+  0.398  0.000  0.451  0.001
  Li_i10  Li1+  0.798  -0.000  0.851  0.001
  Li_i10  Li1+  0.998  0.800  0.051  0.001
  Li_i10  Li1+  0.798  0.400  0.251  0.001
  Li_i10  Li1+  0.398  0.200  0.451  0.001
  Li_i10  Li1+  0.598  0.800  0.651  0.001
  Li_i10  Li1+  0.998  0.000  0.451  0.001
  Li_i10  Li1+  0.398  -0.000  0.051  0.001
  Li_i10  Li1+  0.798  0.600  0.851  0.001
  Li_i10  Li1+  0.998  0.400  0.251  0.001
  Li_i10  Li1+  0.398  0.600  0.251  0.001
  Li_i10  Li1+  0.198  -0.000  0.051  0.001
  Li_i10  Li1+  0.198  0.600  0.651  0.001
  Li_i10  Li1+  0.598  0.000  0.651  0.001
  Li_i10  Li1+  0.398  0.400  0.051  0.001
  Li_i10  Li1+  0.398  0.400  0.651  0.001
  Li_i10  Li1+  0.598  0.200  0.651  0.001
  Li_i10  Li1+  0.398  0.800  0.851  0.001
  Li_i10  Li1+  0.798  0.400  0.451  0.001
  Li_i10  Li1+  0.998  0.000  0.651  0.001
  Li_i10  Li1+  0.998  0.800  0.251  0.001
  Li_i10  Li1+  0.598  0.600  0.651  0.001
  Li_i10  Li1+  0.798  0.200  0.051  0.001
  Li_i10  Li1+  0.598  0.400  0.651  0.001
  Li_i10  Li1+  0.998  0.400  0.451  0.001
  Li_i10  Li1+  0.798  0.800  0.051  0.001
  Li_i10  Li1+  0.398  0.800  0.051  0.001
  Li_i10  Li1+  0.598  0.800  0.851  0.001
  Li_i10  Li1+  0.198  0.400  0.251  0.001
  Li_i10  Li1+  0.198  0.400  0.851  0.001
  Li_i10  Li1+  0.198  0.400  0.651  0.001
  Li_i10  Li1+  0.198  0.400  0.451  0.001
  Li_i10  Li1+  0.398  0.200  0.051  0.001
  Li_i10  Li1+  0.998  -0.000  0.851  0.001
  Li_i10  Li1+  0.998  0.800  0.451  0.001
  Li_i10  Li1+  0.198  0.200  0.251  0.001
  Li_i10  Li1+  0.798  0.400  0.651  0.001
  Li_i10  Li1+  0.998  0.400  0.651  0.001
  Li_i10  Li1+  0.198  0.200  0.051  0.001
  Li_i10  Li1+  0.598  -0.000  0.851  0.001
  Li_i10  Li1+  0.798  0.800  0.251  0.001
  Li_i10  Li1+  0.798  0.200  0.251  0.001
  Li_i10  Li1+  0.398  0.600  0.451  0.001
  Li_i10  Li1+  0.598  0.200  0.851  0.001
  Li_i10  Li1+  0.598  0.600  0.851  0.001
  Li_i10  Li1+  0.198  0.800  0.051  0.001
  Li_i10  Li1+  0.198  0.600  0.451  0.001
  Li_i10  Li1+  0.998  0.800  0.651  0.001
  Li_i10  Li1+  0.798  -0.000  0.051  0.001
  Li_i10  Li1+  0.398  0.200  0.651  0.001
  Li_i10  Li1+  0.998  0.200  0.051  0.001
  Li_i10  Li1+  0.998  0.400  0.851  0.001
  Li_i10  Li1+  0.598  0.400  0.851  0.001
  Li_i10  Li1+  0.798  0.400  0.851  0.001
  Li_i10  Li1+  0.598  -0.000  0.051  0.001
  Li_i10  Li1+  0.798  0.800  0.451  0.001
  Li_i10  Li1+  0.398  0.800  0.251  0.001
  Li_i10  Li1+  0.398  0.000  0.651  0.001
  Li_i10  Li1+  0.198  0.200  0.651  0.001
  Li_i10  Li1+  0.998  0.800  0.851  0.001
  Li_i10  Li1+  0.798  0.200  0.451  0.001
  Li_i10  Li1+  0.398  0.400  0.851  0.001
  Li_i10  Li1+  0.198  0.800  0.451  0.001
  Li_i11  Li1+  0.448  0.408  0.682  0.001
  Li_i11  Li1+  0.448  0.808  0.682  0.001
  Li_i11  Li1+  0.648  0.608  0.482  0.001
  Li_i11  Li1+  0.648  0.408  0.082  0.001
  Li_i11  Li1+  0.448  0.008  0.082  0.001
  Li_i11  Li1+  0.248  0.208  0.882  0.001
  Li_i11  Li1+  0.848  0.608  0.282  0.001
  Li_i11  Li1+  0.048  0.408  0.082  0.001
  Li_i11  Li1+  0.048  0.008  0.082  0.001
  Li_i11  Li1+  0.648  0.008  0.882  0.001
  Li_i11  Li1+  0.448  0.608  0.682  0.001
  Li_i11  Li1+  0.848  0.208  0.682  0.001
  Li_i11  Li1+  0.848  0.008  0.082  0.001
  Li_i11  Li1+  0.248  0.608  0.682  0.001
  Li_i11  Li1+  0.048  0.808  0.082  0.001
  Li_i11  Li1+  0.448  0.208  0.882  0.001
  Li_i11  Li1+  0.248  0.408  0.482  0.001
  Li_i11  Li1+  0.248  0.608  0.082  0.001
  Li_i11  Li1+  0.048  0.208  0.682  0.001
  Li_i11  Li1+  0.848  0.608  0.482  0.001
  Li_i11  Li1+  0.648  0.608  0.682  0.001
  Li_i11  Li1+  0.648  0.408  0.282  0.001
  Li_i11  Li1+  0.048  0.608  0.282  0.001
  Li_i11  Li1+  0.248  0.808  0.482  0.001
  Li_i11  Li1+  0.448  0.808  0.882  0.001
  Li_i11  Li1+  0.248  0.208  0.482  0.001
  Li_i11  Li1+  0.848  0.208  0.882  0.001
  Li_i11  Li1+  0.448  0.208  0.082  0.001
  Li_i11  Li1+  0.848  0.008  0.282  0.001
  Li_i11  Li1+  0.048  0.408  0.282  0.001
  Li_i11  Li1+  0.648  0.208  0.082  0.001
  Li_i11  Li1+  0.448  0.408  0.882  0.001
  Li_i11  Li1+  0.048  0.008  0.682  0.001
  Li_i11  Li1+  0.848  0.608  0.682  0.001
  Li_i11  Li1+  0.448  0.608  0.882  0.001
  Li_i11  Li1+  0.448  0.008  0.282  0.001
  Li_i11  Li1+  0.648  0.608  0.882  0.001
  Li_i11  Li1+  0.048  0.808  0.482  0.001
  Li_i11  Li1+  0.648  0.408  0.482  0.001
  Li_i11  Li1+  0.048  0.408  0.482  0.001
  Li_i11  Li1+  0.048  0.608  0.882  0.001
  Li_i11  Li1+  0.248  0.208  0.082  0.001
  Li_i11  Li1+  0.448  0.408  0.082  0.001
  Li_i11  Li1+  0.848  0.408  0.082  0.001
  Li_i11  Li1+  0.848  0.008  0.482  0.001
  Li_i11  Li1+  0.248  0.408  0.082  0.001
  Li_i11  Li1+  0.248  0.608  0.882  0.001
  Li_i11  Li1+  0.848  0.608  0.882  0.001
  Li_i11  Li1+  0.648  0.008  0.082  0.001
  Li_i11  Li1+  0.648  0.208  0.282  0.001
  Li_i11  Li1+  0.048  0.808  0.882  0.001
  Li_i11  Li1+  0.048  0.608  0.082  0.001
  Li_i11  Li1+  0.248  0.008  0.682  0.001
  Li_i11  Li1+  0.648  0.808  0.082  0.001
  Li_i11  Li1+  0.448  0.608  0.082  0.001
  Li_i11  Li1+  0.648  0.408  0.682  0.001
  Li_i11  Li1+  0.448  0.808  0.082  0.001
  Li_i11  Li1+  0.848  0.408  0.282  0.001
  Li_i11  Li1+  0.248  0.608  0.282  0.001
  Li_i11  Li1+  0.848  0.008  0.682  0.001
  Li_i11  Li1+  0.848  0.808  0.082  0.001
  Li_i11  Li1+  0.448  0.208  0.282  0.001
  Li_i11  Li1+  0.248  0.808  0.682  0.001
  Li_i11  Li1+  0.248  0.408  0.682  0.001
  Li_i11  Li1+  0.448  0.008  0.482  0.001
  Li_i11  Li1+  0.048  0.408  0.682  0.001
  Li_i11  Li1+  0.248  0.008  0.282  0.001
  Li_i11  Li1+  0.648  0.008  0.282  0.001
  Li_i11  Li1+  0.648  0.208  0.482  0.001
  Li_i11  Li1+  0.648  0.808  0.282  0.001
  Li_i11  Li1+  0.048  0.408  0.882  0.001
  Li_i11  Li1+  0.048  0.008  0.482  0.001
  Li_i11  Li1+  0.648  0.408  0.882  0.001
  Li_i11  Li1+  0.848  0.408  0.482  0.001
  Li_i11  Li1+  0.848  0.008  0.882  0.001
  Li_i11  Li1+  0.448  0.408  0.282  0.001
  Li_i11  Li1+  0.248  0.208  0.682  0.001
  Li_i11  Li1+  0.048  0.208  0.082  0.001
  Li_i11  Li1+  0.448  0.808  0.282  0.001
  Li_i11  Li1+  0.848  0.808  0.282  0.001
  Li_i11  Li1+  0.048  0.608  0.682  0.001
  Li_i11  Li1+  0.248  0.808  0.082  0.001
  Li_i11  Li1+  0.448  0.608  0.282  0.001
  Li_i11  Li1+  0.048  0.208  0.882  0.001
  Li_i11  Li1+  0.448  0.208  0.482  0.001
  Li_i11  Li1+  0.648  0.808  0.482  0.001
  Li_i11  Li1+  0.048  0.808  0.282  0.001
  Li_i11  Li1+  0.848  0.408  0.682  0.001
  Li_i11  Li1+  0.648  0.208  0.682  0.001
  Li_i11  Li1+  0.048  0.208  0.482  0.001
  Li_i11  Li1+  0.648  0.008  0.482  0.001
  Li_i11  Li1+  0.848  0.208  0.082  0.001
  Li_i11  Li1+  0.648  0.608  0.082  0.001
  Li_i11  Li1+  0.248  0.808  0.882  0.001
  Li_i11  Li1+  0.848  0.808  0.482  0.001
  Li_i11  Li1+  0.048  0.208  0.282  0.001
  Li_i11  Li1+  0.448  0.008  0.682  0.001
  Li_i11  Li1+  0.248  0.608  0.482  0.001
  Li_i11  Li1+  0.248  0.408  0.282  0.001
  Li_i11  Li1+  0.448  0.408  0.482  0.001
  Li_i11  Li1+  0.248  0.208  0.282  0.001
  Li_i11  Li1+  0.648  0.808  0.682  0.001
  Li_i11  Li1+  0.848  0.408  0.882  0.001
  Li_i11  Li1+  0.448  0.808  0.482  0.001
  Li_i11  Li1+  0.248  0.408  0.882  0.001
  Li_i11  Li1+  0.048  0.808  0.682  0.001
  Li_i11  Li1+  0.848  0.208  0.282  0.001
  Li_i11  Li1+  0.048  0.008  0.882  0.001
  Li_i11  Li1+  0.848  0.808  0.682  0.001
  Li_i11  Li1+  0.648  0.208  0.882  0.001
  Li_i11  Li1+  0.648  0.608  0.282  0.001
  Li_i11  Li1+  0.448  0.608  0.482  0.001
  Li_i11  Li1+  0.648  0.008  0.682  0.001
  Li_i11  Li1+  0.248  0.008  0.882  0.001
  Li_i11  Li1+  0.448  0.208  0.682  0.001
  Li_i11  Li1+  0.048  0.008  0.282  0.001
  Li_i11  Li1+  0.248  0.808  0.282  0.001
  Li_i11  Li1+  0.848  0.608  0.082  0.001
  Li_i11  Li1+  0.248  0.008  0.082  0.001
  Li_i11  Li1+  0.648  0.808  0.882  0.001
  Li_i11  Li1+  0.048  0.608  0.482  0.001
  Li_i11  Li1+  0.848  0.808  0.882  0.001
  Li_i11  Li1+  0.848  0.208  0.482  0.001
  Li_i11  Li1+  0.248  0.008  0.482  0.001
  Li_i11  Li1+  0.448  0.008  0.882  0.001
  Li_i12  Li1+  0.250  0.106  0.619  0.001
  Li_i12  Li1+  0.250  0.706  0.019  0.001
  Li_i12  Li1+  0.650  0.706  0.819  0.001
  Li_i12  Li1+  0.850  0.106  0.219  0.001
  Li_i12  Li1+  0.250  0.706  0.619  0.001
  Li_i12  Li1+  0.450  0.706  0.219  0.001
  Li_i12  Li1+  0.050  0.906  0.219  0.001
  Li_i12  Li1+  0.050  0.706  0.419  0.001
  Li_i12  Li1+  0.650  0.106  0.219  0.001
  Li_i12  Li1+  0.450  0.906  0.219  0.001
  Li_i12  Li1+  0.850  0.306  0.819  0.001
  Li_i12  Li1+  0.050  0.506  0.419  0.001
  Li_i12  Li1+  0.850  0.706  0.419  0.001
  Li_i12  Li1+  0.450  0.106  0.019  0.001
  Li_i12  Li1+  0.650  0.506  0.619  0.001
  Li_i12  Li1+  0.050  0.306  0.819  0.001
  Li_i12  Li1+  0.450  0.506  0.419  0.001
  Li_i12  Li1+  0.250  0.506  0.019  0.001
  Li_i12  Li1+  0.650  0.306  0.419  0.001
  Li_i12  Li1+  0.450  0.306  0.619  0.001
  Li_i12  Li1+  0.850  0.106  0.419  0.001
  Li_i12  Li1+  0.650  0.906  0.019  0.001
  Li_i12  Li1+  0.050  0.706  0.219  0.001
  Li_i12  Li1+  0.450  0.106  0.819  0.001
  Li_i12  Li1+  0.050  0.906  0.619  0.001
  Li_i12  Li1+  0.050  0.506  0.619  0.001
  Li_i12  Li1+  0.050  0.106  0.219  0.001
  Li_i12  Li1+  0.850  0.706  0.619  0.001
  Li_i12  Li1+  0.050  0.906  0.019  0.001
  Li_i12  Li1+  0.850  0.506  0.019  0.001
  Li_i12  Li1+  0.250  0.906  0.419  0.001
  Li_i12  Li1+  0.650  0.106  0.419  0.001
  Li_i12  Li1+  0.650  0.506  0.819  0.001
  Li_i12  Li1+  0.450  0.706  0.419  0.001
  Li_i12  Li1+  0.050  0.706  0.019  0.001
  Li_i12  Li1+  0.450  0.906  0.419  0.001
  Li_i12  Li1+  0.850  0.106  0.619  0.001
  Li_i12  Li1+  0.250  0.506  0.619  0.001
  Li_i12  Li1+  0.650  0.906  0.219  0.001
  Li_i12  Li1+  0.650  0.306  0.619  0.001
  Li_i12  Li1+  0.250  0.306  0.619  0.001
  Li_i12  Li1+  0.250  0.106  0.019  0.001
  Li_i12  Li1+  0.850  0.706  0.819  0.001
  Li_i12  Li1+  0.450  0.506  0.619  0.001
  Li_i12  Li1+  0.250  0.706  0.819  0.001
  Li_i12  Li1+  0.850  0.506  0.219  0.001
  Li_i12  Li1+  0.250  0.706  0.219  0.001
  Li_i12  Li1+  0.450  0.306  0.819  0.001
  Li_i12  Li1+  0.450  0.106  0.219  0.001
  Li_i12  Li1+  0.050  0.106  0.819  0.001
  Li_i12  Li1+  0.050  0.506  0.819  0.001
  Li_i12  Li1+  0.650  0.706  0.019  0.001
  Li_i12  Li1+  0.850  0.106  0.819  0.001
  Li_i12  Li1+  0.650  0.106  0.619  0.001
  Li_i12  Li1+  0.450  0.306  0.019  0.001
  Li_i12  Li1+  0.650  0.906  0.419  0.001
  Li_i12  Li1+  0.250  0.306  0.219  0.001
  Li_i12  Li1+  0.850  0.906  0.019  0.001
  Li_i12  Li1+  0.050  0.306  0.019  0.001
  Li_i12  Li1+  0.450  0.706  0.619  0.001
  Li_i12  Li1+  0.650  0.306  0.819  0.001
  Li_i12  Li1+  0.850  0.506  0.419  0.001
  Li_i12  Li1+  0.450  0.906  0.619  0.001
  Li_i12  Li1+  0.250  0.106  0.819  0.001
  Li_i12  Li1+  0.250  0.106  0.419  0.001
  Li_i12  Li1+  0.050  0.706  0.819  0.001
  Li_i12  Li1+  0.250  0.906  0.619  0.001
  Li_i12  Li1+  0.250  0.506  0.219  0.001
  Li_i12  Li1+  0.050  0.306  0.619  0.001
  Li_i12  Li1+  0.650  0.706  0.219  0.001
  Li_i12  Li1+  0.850  0.306  0.019  0.001
  Li_i12  Li1+  0.050  0.906  0.419  0.001
  Li_i12  Li1+  0.650  0.906  0.619  0.001
  Li_i12  Li1+  0.450  0.506  0.819  0.001
  Li_i12  Li1+  0.050  0.506  0.019  0.001
  Li_i12  Li1+  0.850  0.506  0.619  0.001
  Li_i12  Li1+  0.850  0.906  0.219  0.001
  Li_i12  Li1+  0.050  0.106  0.019  0.001
  Li_i12  Li1+  0.650  0.106  0.819  0.001
  Li_i12  Li1+  0.450  0.506  0.019  0.001
  Li_i12  Li1+  0.650  0.506  0.019  0.001
  Li_i12  Li1+  0.450  0.106  0.419  0.001
  Li_i12  Li1+  0.250  0.906  0.019  0.001
  Li_i12  Li1+  0.450  0.306  0.219  0.001
  Li_i12  Li1+  0.450  0.906  0.819  0.001
  Li_i12  Li1+  0.450  0.706  0.819  0.001
  Li_i12  Li1+  0.850  0.306  0.219  0.001
  Li_i12  Li1+  0.250  0.506  0.819  0.001
  Li_i12  Li1+  0.250  0.706  0.419  0.001
  Li_i12  Li1+  0.650  0.706  0.419  0.001
  Li_i12  Li1+  0.650  0.906  0.819  0.001
  Li_i12  Li1+  0.850  0.506  0.819  0.001
  Li_i12  Li1+  0.850  0.906  0.419  0.001
  Li_i12  Li1+  0.050  0.306  0.219  0.001
  Li_i12  Li1+  0.050  0.706  0.619  0.001
  Li_i12  Li1+  0.250  0.306  0.819  0.001
  Li_i12  Li1+  0.050  0.906  0.819  0.001
  Li_i12  Li1+  0.050  0.306  0.419  0.001
  Li_i12  Li1+  0.250  0.906  0.819  0.001
  Li_i12  Li1+  0.650  0.506  0.219  0.001
  Li_i12  Li1+  0.650  0.306  0.019  0.001
  Li_i12  Li1+  0.450  0.706  0.019  0.001
  Li_i12  Li1+  0.850  0.306  0.419  0.001
  Li_i12  Li1+  0.050  0.506  0.219  0.001
  Li_i12  Li1+  0.250  0.306  0.419  0.001
  Li_i12  Li1+  0.050  0.106  0.619  0.001
  Li_i12  Li1+  0.050  0.106  0.419  0.001
  Li_i12  Li1+  0.850  0.906  0.619  0.001
  Li_i12  Li1+  0.850  0.706  0.019  0.001
  Li_i12  Li1+  0.650  0.706  0.619  0.001
  Li_i12  Li1+  0.450  0.906  0.019  0.001
  Li_i12  Li1+  0.850  0.106  0.019  0.001
  Li_i12  Li1+  0.650  0.106  0.019  0.001
  Li_i12  Li1+  0.450  0.506  0.219  0.001
  Li_i12  Li1+  0.250  0.506  0.419  0.001
  Li_i12  Li1+  0.450  0.306  0.419  0.001
  Li_i12  Li1+  0.450  0.106  0.619  0.001
  Li_i12  Li1+  0.250  0.106  0.219  0.001
  Li_i12  Li1+  0.850  0.306  0.619  0.001
  Li_i12  Li1+  0.650  0.506  0.419  0.001
  Li_i12  Li1+  0.250  0.906  0.219  0.001
  Li_i12  Li1+  0.850  0.906  0.819  0.001
  Li_i12  Li1+  0.650  0.306  0.219  0.001
  Li_i12  Li1+  0.850  0.706  0.219  0.001
  Li_i12  Li1+  0.250  0.306  0.019  0.001
  Li_i13  Li1+  0.248  0.863  0.289  0.001
  Li_i13  Li1+  0.248  0.663  0.689  0.001
  Li_i13  Li1+  0.048  0.263  0.489  0.001
  Li_i13  Li1+  0.248  0.263  0.689  0.001
  Li_i13  Li1+  0.248  0.062  0.889  0.001
  Li_i13  Li1+  0.848  0.663  0.489  0.001
  Li_i13  Li1+  0.248  0.263  0.289  0.001
  Li_i13  Li1+  0.648  0.863  0.289  0.001
  Li_i13  Li1+  0.448  0.062  0.689  0.001
  Li_i13  Li1+  0.048  0.663  0.489  0.001
  Li_i13  Li1+  0.048  0.463  0.089  0.001
  Li_i13  Li1+  0.648  0.263  0.889  0.001
  Li_i13  Li1+  0.648  0.663  0.089  0.001
  Li_i13  Li1+  0.848  0.062  0.689  0.001
  Li_i13  Li1+  0.848  0.463  0.089  0.001
  Li_i13  Li1+  0.448  0.663  0.889  0.001
  Li_i13  Li1+  0.248  0.463  0.689  0.001
  Li_i13  Li1+  0.448  0.263  0.489  0.001
  Li_i13  Li1+  0.048  0.663  0.289  0.001
  Li_i13  Li1+  0.048  0.863  0.889  0.001
  Li_i13  Li1+  0.448  0.863  0.889  0.001
  Li_i13  Li1+  0.848  0.663  0.689  0.001
  Li_i13  Li1+  0.648  0.062  0.889  0.001
  Li_i13  Li1+  0.448  0.663  0.089  0.001
  Li_i13  Li1+  0.448  0.463  0.289  0.001
  Li_i13  Li1+  0.648  0.863  0.489  0.001
  Li_i13  Li1+  0.048  0.062  0.889  0.001
  Li_i13  Li1+  0.448  0.062  0.089  0.001
  Li_i13  Li1+  0.048  0.863  0.289  0.001
  Li_i13  Li1+  0.048  0.663  0.089  0.001
  Li_i13  Li1+  0.848  0.062  0.889  0.001
  Li_i13  Li1+  0.848  0.463  0.289  0.001
  Li_i13  Li1+  0.248  0.663  0.289  0.001
  Li_i13  Li1+  0.648  0.663  0.289  0.001
  Li_i13  Li1+  0.648  0.463  0.089  0.001
  Li_i13  Li1+  0.048  0.463  0.889  0.001
  Li_i13  Li1+  0.248  0.863  0.489  0.001
  Li_i13  Li1+  0.848  0.663  0.889  0.001
  Li_i13  Li1+  0.048  0.062  0.689  0.001
  Li_i13  Li1+  0.448  0.863  0.089  0.001
  Li_i13  Li1+  0.248  0.663  0.889  0.001
  Li_i13  Li1+  0.448  0.062  0.889  0.001
  Li_i13  Li1+  0.248  0.463  0.289  0.001
  Li_i13  Li1+  0.648  0.863  0.689  0.001
  Li_i13  Li1+  0.048  0.263  0.089  0.001
  Li_i13  Li1+  0.648  0.263  0.089  0.001
  Li_i13  Li1+  0.448  0.263  0.689  0.001
  Li_i13  Li1+  0.648  0.062  0.089  0.001
  Li_i13  Li1+  0.848  0.463  0.489  0.001
  Li_i13  Li1+  0.248  0.062  0.289  0.001
  Li_i13  Li1+  0.848  0.263  0.089  0.001
  Li_i13  Li1+  0.448  0.663  0.289  0.001
  Li_i13  Li1+  0.048  0.062  0.089  0.001
  Li_i13  Li1+  0.848  0.863  0.089  0.001
  Li_i13  Li1+  0.648  0.663  0.489  0.001
  Li_i13  Li1+  0.648  0.463  0.289  0.001
  Li_i13  Li1+  0.448  0.463  0.489  0.001
  Li_i13  Li1+  0.048  0.863  0.089  0.001
  Li_i13  Li1+  0.248  0.263  0.889  0.001
  Li_i13  Li1+  0.248  0.062  0.689  0.001
  Li_i13  Li1+  0.248  0.263  0.489  0.001
  Li_i13  Li1+  0.448  0.062  0.289  0.001
  Li_i13  Li1+  0.648  0.863  0.889  0.001
  Li_i13  Li1+  0.448  0.863  0.289  0.001
  Li_i13  Li1+  0.848  0.463  0.689  0.001
  Li_i13  Li1+  0.248  0.463  0.889  0.001
  Li_i13  Li1+  0.048  0.863  0.689  0.001
  Li_i13  Li1+  0.848  0.263  0.289  0.001
  Li_i13  Li1+  0.648  0.263  0.289  0.001
  Li_i13  Li1+  0.248  0.263  0.089  0.001
  Li_i13  Li1+  0.048  0.263  0.889  0.001
  Li_i13  Li1+  0.648  0.062  0.289  0.001
  Li_i13  Li1+  0.648  0.663  0.689  0.001
  Li_i13  Li1+  0.848  0.863  0.289  0.001
  Li_i13  Li1+  0.248  0.863  0.689  0.001
  Li_i13  Li1+  0.648  0.463  0.489  0.001
  Li_i13  Li1+  0.048  0.463  0.289  0.001
  Li_i13  Li1+  0.448  0.263  0.089  0.001
  Li_i13  Li1+  0.448  0.263  0.889  0.001
  Li_i13  Li1+  0.248  0.663  0.489  0.001
  Li_i13  Li1+  0.448  0.663  0.489  0.001
  Li_i13  Li1+  0.848  0.463  0.889  0.001
  Li_i13  Li1+  0.448  0.463  0.689  0.001
  Li_i13  Li1+  0.848  0.062  0.089  0.001
  Li_i13  Li1+  0.848  0.263  0.489  0.001
  Li_i13  Li1+  0.248  0.863  0.089  0.001
  Li_i13  Li1+  0.048  0.062  0.289  0.001
  Li_i13  Li1+  0.048  0.663  0.889  0.001
  Li_i13  Li1+  0.048  0.263  0.289  0.001
  Li_i13  Li1+  0.248  0.463  0.489  0.001
  Li_i13  Li1+  0.848  0.863  0.489  0.001
  Li_i13  Li1+  0.648  0.263  0.489  0.001
  Li_i13  Li1+  0.648  0.663  0.889  0.001
  Li_i13  Li1+  0.448  0.863  0.489  0.001
  Li_i13  Li1+  0.048  0.463  0.489  0.001
  Li_i13  Li1+  0.648  0.463  0.689  0.001
  Li_i13  Li1+  0.248  0.062  0.089  0.001
  Li_i13  Li1+  0.648  0.063  0.489  0.001
  Li_i13  Li1+  0.848  0.663  0.089  0.001
  Li_i13  Li1+  0.448  0.063  0.489  0.001
  Li_i13  Li1+  0.048  0.263  0.689  0.001
  Li_i13  Li1+  0.848  0.263  0.689  0.001
  Li_i13  Li1+  0.848  0.062  0.289  0.001
  Li_i13  Li1+  0.048  0.663  0.689  0.001
  Li_i13  Li1+  0.048  0.863  0.489  0.001
  Li_i13  Li1+  0.248  0.463  0.089  0.001
  Li_i13  Li1+  0.848  0.863  0.689  0.001
  Li_i13  Li1+  0.248  0.663  0.089  0.001
  Li_i13  Li1+  0.448  0.263  0.289  0.001
  Li_i13  Li1+  0.448  0.663  0.689  0.001
  Li_i13  Li1+  0.248  0.863  0.889  0.001
  Li_i13  Li1+  0.448  0.463  0.089  0.001
  Li_i13  Li1+  0.648  0.863  0.089  0.001
  Li_i13  Li1+  0.648  0.263  0.689  0.001
  Li_i13  Li1+  0.848  0.663  0.289  0.001
  Li_i13  Li1+  0.048  0.063  0.489  0.001
  Li_i13  Li1+  0.648  0.463  0.889  0.001
  Li_i13  Li1+  0.448  0.463  0.889  0.001
  Li_i13  Li1+  0.048  0.463  0.689  0.001
  Li_i13  Li1+  0.848  0.263  0.889  0.001
  Li_i13  Li1+  0.448  0.863  0.689  0.001
  Li_i13  Li1+  0.848  0.863  0.889  0.001
  Li_i13  Li1+  0.848  0.063  0.489  0.001
  Li_i13  Li1+  0.248  0.063  0.489  0.001
  Li_i13  Li1+  0.648  0.062  0.689  0.001
  Li_i14  Li1+  0.852  0.569  0.014  0.001
  Li_i14  Li1+  0.452  0.569  0.614  0.001
  Li_i14  Li1+  0.252  0.969  0.214  0.001
  Li_i14  Li1+  0.052  0.169  0.414  0.001
  Li_i14  Li1+  0.252  0.169  0.614  0.001
  Li_i14  Li1+  0.452  0.769  0.414  0.001
  Li_i14  Li1+  0.052  0.569  0.814  0.001
  Li_i14  Li1+  0.052  0.769  0.414  0.001
  Li_i14  Li1+  0.652  0.569  0.214  0.001
  Li_i14  Li1+  0.852  0.169  0.814  0.001
  Li_i14  Li1+  0.052  0.769  0.214  0.001
  Li_i14  Li1+  0.652  0.169  0.214  0.001
  Li_i14  Li1+  0.452  0.369  0.214  0.001
  Li_i14  Li1+  0.252  0.569  0.214  0.001
  Li_i14  Li1+  0.652  0.969  0.614  0.001
  Li_i14  Li1+  0.852  0.769  0.614  0.001
  Li_i14  Li1+  0.652  0.369  0.214  0.001
  Li_i14  Li1+  0.652  0.769  0.414  0.001
  Li_i14  Li1+  0.852  0.569  0.214  0.001
  Li_i14  Li1+  0.252  0.369  0.014  0.001
  Li_i14  Li1+  0.252  0.369  0.414  0.001
  Li_i14  Li1+  0.252  0.769  0.214  0.001
  Li_i14  Li1+  0.252  0.369  0.814  0.001
  Li_i14  Li1+  0.452  0.569  0.014  0.001
  Li_i14  Li1+  0.052  0.969  0.414  0.001
  Li_i14  Li1+  0.452  0.969  0.414  0.001
  Li_i14  Li1+  0.252  0.169  0.014  0.001
  Li_i14  Li1+  0.452  0.169  0.614  0.001
  Li_i14  Li1+  0.052  0.769  0.014  0.001
  Li_i14  Li1+  0.852  0.369  0.014  0.001
  Li_i14  Li1+  0.652  0.569  0.414  0.001
  Li_i14  Li1+  0.052  0.369  0.614  0.001
  Li_i14  Li1+  0.852  0.769  0.814  0.001
  Li_i14  Li1+  0.452  0.569  0.814  0.001
  Li_i14  Li1+  0.452  0.769  0.614  0.001
  Li_i14  Li1+  0.652  0.969  0.814  0.001
  Li_i14  Li1+  0.852  0.569  0.414  0.001
  Li_i14  Li1+  0.252  0.769  0.814  0.001
  Li_i14  Li1+  0.652  0.769  0.614  0.001
  Li_i14  Li1+  0.652  0.169  0.414  0.001
  Li_i14  Li1+  0.452  0.169  0.014  0.001
  Li_i14  Li1+  0.652  0.369  0.414  0.001
  Li_i14  Li1+  0.052  0.569  0.214  0.001
  Li_i14  Li1+  0.252  0.969  0.414  0.001
  Li_i14  Li1+  0.052  0.369  0.414  0.001
  Li_i14  Li1+  0.452  0.369  0.414  0.001
  Li_i14  Li1+  0.052  0.369  0.014  0.001
  Li_i14  Li1+  0.852  0.369  0.214  0.001
  Li_i14  Li1+  0.252  0.569  0.814  0.001
  Li_i14  Li1+  0.852  0.969  0.014  0.001
  Li_i14  Li1+  0.052  0.169  0.214  0.001
  Li_i14  Li1+  0.052  0.969  0.214  0.001
  Li_i14  Li1+  0.652  0.569  0.614  0.001
  Li_i14  Li1+  0.852  0.569  0.614  0.001
  Li_i14  Li1+  0.452  0.969  0.614  0.001
  Li_i14  Li1+  0.252  0.169  0.414  0.001
  Li_i14  Li1+  0.052  0.569  0.414  0.001
  Li_i14  Li1+  0.852  0.169  0.014  0.001
  Li_i14  Li1+  0.652  0.769  0.814  0.001
  Li_i14  Li1+  0.452  0.569  0.214  0.001
  Li_i14  Li1+  0.052  0.969  0.814  0.001
  Li_i14  Li1+  0.252  0.569  0.414  0.001
  Li_i14  Li1+  0.452  0.169  0.814  0.001
  Li_i14  Li1+  0.652  0.369  0.614  0.001
  Li_i14  Li1+  0.652  0.169  0.614  0.001
  Li_i14  Li1+  0.852  0.369  0.414  0.001
  Li_i14  Li1+  0.452  0.769  0.814  0.001
  Li_i14  Li1+  0.452  0.769  0.014  0.001
  Li_i14  Li1+  0.052  0.169  0.614  0.001
  Li_i14  Li1+  0.252  0.769  0.414  0.001
  Li_i14  Li1+  0.852  0.969  0.214  0.001
  Li_i14  Li1+  0.852  0.569  0.814  0.001
  Li_i14  Li1+  0.252  0.169  0.814  0.001
  Li_i14  Li1+  0.052  0.569  0.014  0.001
  Li_i14  Li1+  0.652  0.569  0.814  0.001
  Li_i14  Li1+  0.252  0.569  0.014  0.001
  Li_i14  Li1+  0.852  0.169  0.214  0.001
  Li_i14  Li1+  0.452  0.169  0.214  0.001
  Li_i14  Li1+  0.452  0.369  0.614  0.001
  Li_i14  Li1+  0.652  0.969  0.014  0.001
  Li_i14  Li1+  0.252  0.969  0.014  0.001
  Li_i14  Li1+  0.452  0.969  0.814  0.001
  Li_i14  Li1+  0.252  0.969  0.614  0.001
  Li_i14  Li1+  0.852  0.369  0.614  0.001
  Li_i14  Li1+  0.052  0.169  0.814  0.001
  Li_i14  Li1+  0.252  0.369  0.214  0.001
  Li_i14  Li1+  0.252  0.369  0.614  0.001
  Li_i14  Li1+  0.652  0.369  0.814  0.001
  Li_i14  Li1+  0.852  0.969  0.414  0.001
  Li_i14  Li1+  0.852  0.769  0.014  0.001
  Li_i14  Li1+  0.052  0.969  0.014  0.001
  Li_i14  Li1+  0.652  0.169  0.814  0.001
  Li_i14  Li1+  0.452  0.569  0.414  0.001
  Li_i14  Li1+  0.452  0.969  0.014  0.001
  Li_i14  Li1+  0.052  0.569  0.614  0.001
  Li_i14  Li1+  0.252  0.769  0.014  0.001
  Li_i14  Li1+  0.852  0.169  0.414  0.001
  Li_i14  Li1+  0.652  0.769  0.014  0.001
  Li_i14  Li1+  0.452  0.769  0.214  0.001
  Li_i14  Li1+  0.652  0.969  0.214  0.001
  Li_i14  Li1+  0.052  0.369  0.214  0.001
  Li_i14  Li1+  0.052  0.769  0.814  0.001
  Li_i14  Li1+  0.852  0.369  0.814  0.001
  Li_i14  Li1+  0.452  0.369  0.014  0.001
  Li_i14  Li1+  0.052  0.969  0.614  0.001
  Li_i14  Li1+  0.852  0.969  0.614  0.001
  Li_i14  Li1+  0.852  0.769  0.214  0.001
  Li_i14  Li1+  0.252  0.169  0.214  0.001
  Li_i14  Li1+  0.052  0.169  0.014  0.001
  Li_i14  Li1+  0.052  0.369  0.814  0.001
  Li_i14  Li1+  0.652  0.169  0.014  0.001
  Li_i14  Li1+  0.652  0.569  0.014  0.001
  Li_i14  Li1+  0.452  0.369  0.814  0.001
  Li_i14  Li1+  0.252  0.769  0.614  0.001
  Li_i14  Li1+  0.452  0.169  0.414  0.001
  Li_i14  Li1+  0.852  0.169  0.614  0.001
  Li_i14  Li1+  0.652  0.369  0.014  0.001
  Li_i14  Li1+  0.052  0.769  0.614  0.001
  Li_i14  Li1+  0.652  0.769  0.214  0.001
  Li_i14  Li1+  0.652  0.969  0.414  0.001
  Li_i14  Li1+  0.252  0.569  0.614  0.001
  Li_i14  Li1+  0.852  0.969  0.814  0.001
  Li_i14  Li1+  0.452  0.969  0.214  0.001
  Li_i14  Li1+  0.852  0.769  0.414  0.001
  Li_i14  Li1+  0.252  0.969  0.814  0.001
  Li_i15  Li1+  0.450  0.231  0.011  0.001
  Li_i15  Li1+  0.650  0.631  0.611  0.001
  Li_i15  Li1+  0.050  0.631  0.011  0.001
  Li_i15  Li1+  0.250  0.831  0.811  0.001
  Li_i15  Li1+  0.850  0.431  0.211  0.001
  Li_i15  Li1+  0.450  0.431  0.411  0.001
  Li_i15  Li1+  0.650  0.031  0.611  0.001
  Li_i15  Li1+  0.650  0.831  0.811  0.001
  Li_i15  Li1+  0.450  0.031  0.411  0.001
  Li_i15  Li1+  0.850  0.631  0.611  0.001
  Li_i15  Li1+  0.850  0.231  0.011  0.001
  Li_i15  Li1+  0.050  0.631  0.611  0.001
  Li_i15  Li1+  0.650  0.431  0.611  0.001
  Li_i15  Li1+  0.250  0.631  0.211  0.001
  Li_i15  Li1+  0.050  0.631  0.211  0.001
  Li_i15  Li1+  0.650  0.231  0.611  0.001
  Li_i15  Li1+  0.050  0.631  0.411  0.001
  Li_i15  Li1+  0.250  0.031  0.811  0.001
  Li_i15  Li1+  0.450  0.831  0.811  0.001
  Li_i15  Li1+  0.450  0.631  0.211  0.001
  Li_i15  Li1+  0.450  0.231  0.811  0.001
  Li_i15  Li1+  0.450  0.831  0.011  0.001
  Li_i15  Li1+  0.650  0.631  0.811  0.001
  Li_i15  Li1+  0.850  0.431  0.411  0.001
  Li_i15  Li1+  0.050  0.831  0.611  0.001
  Li_i15  Li1+  0.050  0.231  0.011  0.001
  Li_i15  Li1+  0.050  0.431  0.011  0.001
  Li_i15  Li1+  0.850  0.631  0.811  0.001
  Li_i15  Li1+  0.250  0.431  0.811  0.001
  Li_i15  Li1+  0.850  0.231  0.211  0.001
  Li_i15  Li1+  0.050  0.431  0.411  0.001
  Li_i15  Li1+  0.850  0.031  0.011  0.001
  Li_i15  Li1+  0.250  0.631  0.811  0.001
  Li_i15  Li1+  0.250  0.231  0.211  0.001
  Li_i15  Li1+  0.650  0.431  0.811  0.001
  Li_i15  Li1+  0.650  0.031  0.811  0.001
  Li_i15  Li1+  0.250  0.031  0.211  0.001
  Li_i15  Li1+  0.450  0.231  0.211  0.001
  Li_i15  Li1+  0.450  0.431  0.611  0.001
  Li_i15  Li1+  0.650  0.231  0.811  0.001
  Li_i15  Li1+  0.250  0.431  0.411  0.001
  Li_i15  Li1+  0.850  0.431  0.611  0.001
  Li_i15  Li1+  0.050  0.031  0.411  0.001
  Li_i15  Li1+  0.250  0.831  0.411  0.001
  Li_i15  Li1+  0.250  0.431  0.011  0.001
  Li_i15  Li1+  0.850  0.831  0.011  0.001
  Li_i15  Li1+  0.650  0.831  0.011  0.001
  Li_i15  Li1+  0.450  0.031  0.611  0.001
  Li_i15  Li1+  0.850  0.231  0.411  0.001
  Li_i15  Li1+  0.650  0.031  0.011  0.001
  Li_i15  Li1+  0.450  0.031  0.011  0.001
  Li_i15  Li1+  0.850  0.031  0.211  0.001
  Li_i15  Li1+  0.450  0.831  0.211  0.001
  Li_i15  Li1+  0.250  0.231  0.611  0.001
  Li_i15  Li1+  0.450  0.631  0.411  0.001
  Li_i15  Li1+  0.050  0.231  0.411  0.001
  Li_i15  Li1+  0.050  0.231  0.811  0.001
  Li_i15  Li1+  0.650  0.631  0.011  0.001
  Li_i15  Li1+  0.450  0.431  0.011  0.001
  Li_i15  Li1+  0.050  0.831  0.411  0.001
  Li_i15  Li1+  0.850  0.431  0.811  0.001
  Li_i15  Li1+  0.650  0.231  0.011  0.001
  Li_i15  Li1+  0.250  0.631  0.411  0.001
  Li_i15  Li1+  0.650  0.431  0.011  0.001
  Li_i15  Li1+  0.050  0.231  0.611  0.001
  Li_i15  Li1+  0.050  0.431  0.611  0.001
  Li_i15  Li1+  0.850  0.231  0.611  0.001
  Li_i15  Li1+  0.850  0.831  0.211  0.001
  Li_i15  Li1+  0.650  0.831  0.211  0.001
  Li_i15  Li1+  0.250  0.031  0.611  0.001
  Li_i15  Li1+  0.050  0.031  0.811  0.001
  Li_i15  Li1+  0.250  0.031  0.011  0.001
  Li_i15  Li1+  0.850  0.031  0.411  0.001
  Li_i15  Li1+  0.450  0.231  0.411  0.001
  Li_i15  Li1+  0.050  0.031  0.011  0.001
  Li_i15  Li1+  0.650  0.031  0.211  0.001
  Li_i15  Li1+  0.450  0.431  0.811  0.001
  Li_i15  Li1+  0.250  0.831  0.011  0.001
  Li_i15  Li1+  0.250  0.631  0.011  0.001
  Li_i15  Li1+  0.850  0.631  0.011  0.001
  Li_i15  Li1+  0.650  0.631  0.211  0.001
  Li_i15  Li1+  0.050  0.031  0.211  0.001
  Li_i15  Li1+  0.450  0.831  0.411  0.001
  Li_i15  Li1+  0.050  0.831  0.211  0.001
  Li_i15  Li1+  0.450  0.631  0.611  0.001
  Li_i15  Li1+  0.650  0.231  0.211  0.001
  Li_i15  Li1+  0.850  0.831  0.411  0.001
  Li_i15  Li1+  0.850  0.231  0.811  0.001
  Li_i15  Li1+  0.650  0.431  0.211  0.001
  Li_i15  Li1+  0.650  0.831  0.411  0.001
  Li_i15  Li1+  0.450  0.031  0.811  0.001
  Li_i15  Li1+  0.250  0.831  0.611  0.001
  Li_i15  Li1+  0.850  0.031  0.611  0.001
  Li_i15  Li1+  0.250  0.231  0.011  0.001
  Li_i15  Li1+  0.450  0.031  0.211  0.001
  Li_i15  Li1+  0.050  0.431  0.211  0.001
  Li_i15  Li1+  0.450  0.431  0.211  0.001
  Li_i15  Li1+  0.850  0.631  0.211  0.001
  Li_i15  Li1+  0.050  0.231  0.211  0.001
  Li_i15  Li1+  0.250  0.431  0.611  0.001
  Li_i15  Li1+  0.250  0.231  0.411  0.001
  Li_i15  Li1+  0.050  0.431  0.811  0.001
  Li_i15  Li1+  0.650  0.031  0.411  0.001
  Li_i15  Li1+  0.650  0.631  0.411  0.001
  Li_i15  Li1+  0.850  0.831  0.611  0.001
  Li_i15  Li1+  0.050  0.831  0.011  0.001
  Li_i15  Li1+  0.250  0.631  0.611  0.001
  Li_i15  Li1+  0.450  0.231  0.611  0.001
  Li_i15  Li1+  0.450  0.631  0.011  0.001
  Li_i15  Li1+  0.850  0.431  0.011  0.001
  Li_i15  Li1+  0.650  0.831  0.611  0.001
  Li_i15  Li1+  0.250  0.431  0.211  0.001
  Li_i15  Li1+  0.850  0.031  0.811  0.001
  Li_i15  Li1+  0.650  0.431  0.411  0.001
  Li_i15  Li1+  0.450  0.831  0.611  0.001
  Li_i15  Li1+  0.850  0.631  0.411  0.001
  Li_i15  Li1+  0.650  0.231  0.411  0.001
  Li_i15  Li1+  0.250  0.231  0.811  0.001
  Li_i15  Li1+  0.050  0.831  0.811  0.001
  Li_i15  Li1+  0.450  0.631  0.811  0.001
  Li_i15  Li1+  0.050  0.031  0.611  0.001
  Li_i15  Li1+  0.850  0.831  0.811  0.001
  Li_i15  Li1+  0.250  0.031  0.411  0.001
  Li_i15  Li1+  0.250  0.831  0.211  0.001
  Li_i15  Li1+  0.050  0.631  0.811  0.001
  Li_i16  Li1+  0.250  0.950  0.356  0.001
  Li_i16  Li1+  0.250  0.150  0.156  0.001
  Li_i16  Li1+  0.250  0.350  0.756  0.001
  Li_i16  Li1+  0.850  0.750  0.756  0.001
  Li_i16  Li1+  0.850  0.150  0.156  0.001
  Li_i16  Li1+  0.250  0.150  0.756  0.001
  Li_i16  Li1+  0.450  0.550  0.356  0.001
  Li_i16  Li1+  0.650  0.350  0.156  0.001
  Li_i16  Li1+  0.250  0.550  0.956  0.001
  Li_i16  Li1+  0.850  0.350  0.356  0.001
  Li_i16  Li1+  0.450  0.750  0.756  0.001
  Li_i16  Li1+  0.850  0.550  0.556  0.001
  Li_i16  Li1+  0.250  0.550  0.156  0.001
  Li_i16  Li1+  0.250  0.950  0.956  0.001
  Li_i16  Li1+  0.650  0.950  0.156  0.001
  Li_i16  Li1+  0.650  0.150  0.356  0.001
  Li_i16  Li1+  0.450  0.350  0.756  0.001
  Li_i16  Li1+  0.650  0.550  0.156  0.001
  Li_i16  Li1+  0.650  0.750  0.156  0.001
  Li_i16  Li1+  0.450  0.950  0.556  0.001
  Li_i16  Li1+  0.250  0.550  0.556  0.001
  Li_i16  Li1+  0.050  0.950  0.156  0.001
  Li_i16  Li1+  0.850  0.750  0.956  0.001
  Li_i16  Li1+  0.050  0.750  0.956  0.001
  Li_i16  Li1+  0.450  0.150  0.556  0.001
  Li_i16  Li1+  0.450  0.350  0.156  0.001
  Li_i16  Li1+  0.850  0.150  0.356  0.001
  Li_i16  Li1+  0.050  0.750  0.756  0.001
  Li_i16  Li1+  0.050  0.750  0.556  0.001
  Li_i16  Li1+  0.850  0.350  0.556  0.001
  Li_i16  Li1+  0.850  0.550  0.756  0.001
  Li_i16  Li1+  0.450  0.750  0.156  0.001
  Li_i16  Li1+  0.250  0.750  0.956  0.001
  Li_i16  Li1+  0.050  0.350  0.156  0.001
  Li_i16  Li1+  0.650  0.350  0.356  0.001
  Li_i16  Li1+  0.050  0.150  0.956  0.001
  Li_i16  Li1+  0.650  0.950  0.356  0.001
  Li_i16  Li1+  0.050  0.950  0.956  0.001
  Li_i16  Li1+  0.250  0.350  0.156  0.001
  Li_i16  Li1+  0.050  0.150  0.356  0.001
  Li_i16  Li1+  0.050  0.550  0.756  0.001
  Li_i16  Li1+  0.850  0.950  0.156  0.001
  Li_i16  Li1+  0.650  0.750  0.356  0.001
  Li_i16  Li1+  0.650  0.550  0.356  0.001
  Li_i16  Li1+  0.450  0.750  0.956  0.001
  Li_i16  Li1+  0.650  0.150  0.556  0.001
  Li_i16  Li1+  0.450  0.550  0.556  0.001
  Li_i16  Li1+  0.850  0.150  0.556  0.001
  Li_i16  Li1+  0.450  0.950  0.756  0.001
  Li_i16  Li1+  0.850  0.350  0.756  0.001
  Li_i16  Li1+  0.850  0.550  0.956  0.001
  Li_i16  Li1+  0.050  0.150  0.756  0.001
  Li_i16  Li1+  0.250  0.950  0.556  0.001
  Li_i16  Li1+  0.250  0.750  0.556  0.001
  Li_i16  Li1+  0.450  0.350  0.956  0.001
  Li_i16  Li1+  0.250  0.150  0.556  0.001
  Li_i16  Li1+  0.250  0.350  0.556  0.001
  Li_i16  Li1+  0.050  0.550  0.356  0.001
  Li_i16  Li1+  0.650  0.950  0.556  0.001
  Li_i16  Li1+  0.050  0.950  0.756  0.001
  Li_i16  Li1+  0.450  0.150  0.156  0.001
  Li_i16  Li1+  0.650  0.350  0.556  0.001
  Li_i16  Li1+  0.450  0.350  0.356  0.001
  Li_i16  Li1+  0.450  0.750  0.356  0.001
  Li_i16  Li1+  0.850  0.950  0.356  0.001
  Li_i16  Li1+  0.050  0.350  0.556  0.001
  Li_i16  Li1+  0.650  0.750  0.556  0.001
  Li_i16  Li1+  0.650  0.550  0.556  0.001
  Li_i16  Li1+  0.850  0.150  0.756  0.001
  Li_i16  Li1+  0.450  0.150  0.756  0.001
  Li_i16  Li1+  0.850  0.750  0.156  0.001
  Li_i16  Li1+  0.250  0.750  0.156  0.001
  Li_i16  Li1+  0.850  0.350  0.956  0.001
  Li_i16  Li1+  0.050  0.150  0.556  0.001
  Li_i16  Li1+  0.250  0.350  0.956  0.001
  Li_i16  Li1+  0.450  0.950  0.156  0.001
  Li_i16  Li1+  0.650  0.150  0.756  0.001
  Li_i16  Li1+  0.250  0.550  0.756  0.001
  Li_i16  Li1+  0.250  0.950  0.156  0.001
  Li_i16  Li1+  0.450  0.950  0.956  0.001
  Li_i16  Li1+  0.650  0.950  0.756  0.001
  Li_i16  Li1+  0.450  0.550  0.756  0.001
  Li_i16  Li1+  0.050  0.550  0.156  0.001
  Li_i16  Li1+  0.250  0.550  0.356  0.001
  Li_i16  Li1+  0.850  0.950  0.556  0.001
  Li_i16  Li1+  0.050  0.350  0.756  0.001
  Li_i16  Li1+  0.050  0.550  0.956  0.001
  Li_i16  Li1+  0.650  0.350  0.756  0.001
  Li_i16  Li1+  0.050  0.950  0.556  0.001
  Li_i16  Li1+  0.850  0.750  0.356  0.001
  Li_i16  Li1+  0.650  0.750  0.756  0.001
  Li_i16  Li1+  0.850  0.150  0.956  0.001
  Li_i16  Li1+  0.250  0.150  0.956  0.001
  Li_i16  Li1+  0.650  0.550  0.756  0.001
  Li_i16  Li1+  0.850  0.550  0.156  0.001
  Li_i16  Li1+  0.450  0.550  0.156  0.001
  Li_i16  Li1+  0.250  0.950  0.756  0.001
  Li_i16  Li1+  0.250  0.150  0.356  0.001
  Li_i16  Li1+  0.050  0.350  0.956  0.001
  Li_i16  Li1+  0.250  0.750  0.756  0.001
  Li_i16  Li1+  0.450  0.750  0.556  0.001
  Li_i16  Li1+  0.450  0.350  0.556  0.001
  Li_i16  Li1+  0.650  0.150  0.956  0.001
  Li_i16  Li1+  0.850  0.950  0.756  0.001
  Li_i16  Li1+  0.650  0.950  0.956  0.001
  Li_i16  Li1+  0.050  0.550  0.556  0.001
  Li_i16  Li1+  0.450  0.950  0.356  0.001
  Li_i16  Li1+  0.450  0.150  0.356  0.001
  Li_i16  Li1+  0.850  0.750  0.556  0.001
  Li_i16  Li1+  0.450  0.150  0.956  0.001
  Li_i16  Li1+  0.650  0.150  0.156  0.001
  Li_i16  Li1+  0.050  0.750  0.156  0.001
  Li_i16  Li1+  0.050  0.150  0.156  0.001
  Li_i16  Li1+  0.850  0.350  0.156  0.001
  Li_i16  Li1+  0.650  0.750  0.956  0.001
  Li_i16  Li1+  0.850  0.550  0.356  0.001
  Li_i16  Li1+  0.250  0.350  0.356  0.001
  Li_i16  Li1+  0.650  0.350  0.956  0.001
  Li_i16  Li1+  0.650  0.550  0.956  0.001
  Li_i16  Li1+  0.050  0.950  0.356  0.001
  Li_i16  Li1+  0.050  0.750  0.356  0.001
  Li_i16  Li1+  0.850  0.950  0.956  0.001
  Li_i16  Li1+  0.450  0.550  0.956  0.001
  Li_i16  Li1+  0.250  0.750  0.356  0.001
  Li_i16  Li1+  0.050  0.350  0.356  0.001
  Li_i17  Li1+  0.048  0.798  0.281  0.001
  Li_i17  Li1+  0.248  0.998  0.281  0.001
  Li_i17  Li1+  0.848  0.198  0.281  0.001
  Li_i17  Li1+  0.448  0.598  0.081  0.001
  Li_i17  Li1+  0.648  0.798  0.281  0.001
  Li_i17  Li1+  0.648  0.998  0.281  0.001
  Li_i17  Li1+  0.448  0.998  0.081  0.001
  Li_i17  Li1+  0.448  0.198  0.881  0.001
  Li_i17  Li1+  0.448  0.398  0.481  0.001
  Li_i17  Li1+  0.048  0.598  0.281  0.001
  Li_i17  Li1+  0.048  0.998  0.481  0.001
  Li_i17  Li1+  0.848  0.398  0.481  0.001
  Li_i17  Li1+  0.648  0.398  0.481  0.001
  Li_i17  Li1+  0.048  0.598  0.681  0.001
  Li_i17  Li1+  0.048  0.798  0.481  0.001
  Li_i17  Li1+  0.448  0.998  0.881  0.001
  Li_i17  Li1+  0.248  0.398  0.481  0.001
  Li_i17  Li1+  0.848  0.798  0.881  0.001
  Li_i17  Li1+  0.648  0.198  0.681  0.001
  Li_i17  Li1+  0.848  0.598  0.681  0.001
  Li_i17  Li1+  0.048  0.798  0.681  0.001
  Li_i17  Li1+  0.048  0.998  0.281  0.001
  Li_i17  Li1+  0.248  0.198  0.281  0.001
  Li_i17  Li1+  0.648  0.598  0.481  0.001
  Li_i17  Li1+  0.848  0.198  0.481  0.001
  Li_i17  Li1+  0.248  0.998  0.881  0.001
  Li_i17  Li1+  0.448  0.798  0.481  0.001
  Li_i17  Li1+  0.248  0.798  0.881  0.001
  Li_i17  Li1+  0.648  0.998  0.481  0.001
  Li_i17  Li1+  0.048  0.798  0.881  0.001
  Li_i17  Li1+  0.648  0.798  0.481  0.001
  Li_i17  Li1+  0.048  0.998  0.081  0.001
  Li_i17  Li1+  0.848  0.398  0.681  0.001
  Li_i17  Li1+  0.248  0.198  0.881  0.001
  Li_i17  Li1+  0.248  0.398  0.881  0.001
  Li_i17  Li1+  0.048  0.198  0.681  0.001
  Li_i17  Li1+  0.448  0.998  0.281  0.001
  Li_i17  Li1+  0.848  0.998  0.081  0.001
  Li_i17  Li1+  0.448  0.598  0.881  0.001
  Li_i17  Li1+  0.648  0.398  0.681  0.001
  Li_i17  Li1+  0.848  0.598  0.881  0.001
  Li_i17  Li1+  0.448  0.198  0.481  0.001
  Li_i17  Li1+  0.248  0.798  0.481  0.001
  Li_i17  Li1+  0.048  0.598  0.081  0.001
  Li_i17  Li1+  0.448  0.598  0.281  0.001
  Li_i17  Li1+  0.448  0.398  0.681  0.001
  Li_i17  Li1+  0.848  0.198  0.681  0.001
  Li_i17  Li1+  0.648  0.198  0.881  0.001
  Li_i17  Li1+  0.648  0.198  0.081  0.001
  Li_i17  Li1+  0.648  0.598  0.681  0.001
  Li_i17  Li1+  0.048  0.398  0.881  0.001
  Li_i17  Li1+  0.648  0.998  0.681  0.001
  Li_i17  Li1+  0.448  0.398  0.081  0.001
  Li_i17  Li1+  0.248  0.598  0.281  0.001
  Li_i17  Li1+  0.648  0.798  0.681  0.001
  Li_i17  Li1+  0.848  0.398  0.881  0.001
  Li_i17  Li1+  0.248  0.798  0.081  0.001
  Li_i17  Li1+  0.248  0.998  0.481  0.001
  Li_i17  Li1+  0.248  0.598  0.681  0.001
  Li_i17  Li1+  0.048  0.198  0.281  0.001
  Li_i17  Li1+  0.848  0.798  0.081  0.001
  Li_i17  Li1+  0.848  0.998  0.281  0.001
  Li_i17  Li1+  0.448  0.798  0.681  0.001
  Li_i17  Li1+  0.248  0.198  0.081  0.001
  Li_i17  Li1+  0.048  0.198  0.081  0.001
  Li_i17  Li1+  0.048  0.198  0.481  0.001
  Li_i17  Li1+  0.248  0.398  0.281  0.001
  Li_i17  Li1+  0.648  0.398  0.881  0.001
  Li_i17  Li1+  0.048  0.598  0.481  0.001
  Li_i17  Li1+  0.848  0.198  0.881  0.001
  Li_i17  Li1+  0.248  0.198  0.681  0.001
  Li_i17  Li1+  0.448  0.198  0.081  0.001
  Li_i17  Li1+  0.448  0.998  0.481  0.001
  Li_i17  Li1+  0.448  0.798  0.081  0.001
  Li_i17  Li1+  0.648  0.598  0.881  0.001
  Li_i17  Li1+  0.648  0.998  0.881  0.001
  Li_i17  Li1+  0.248  0.998  0.081  0.001
  Li_i17  Li1+  0.648  0.398  0.081  0.001
  Li_i17  Li1+  0.848  0.598  0.081  0.001
  Li_i17  Li1+  0.648  0.798  0.881  0.001
  Li_i17  Li1+  0.848  0.798  0.281  0.001
  Li_i17  Li1+  0.648  0.198  0.281  0.001
  Li_i17  Li1+  0.848  0.998  0.481  0.001
  Li_i17  Li1+  0.048  0.598  0.881  0.001
  Li_i17  Li1+  0.048  0.198  0.881  0.001
  Li_i17  Li1+  0.048  0.998  0.881  0.001
  Li_i17  Li1+  0.448  0.598  0.481  0.001
  Li_i17  Li1+  0.448  0.398  0.881  0.001
  Li_i17  Li1+  0.448  0.198  0.681  0.001
  Li_i17  Li1+  0.048  0.398  0.481  0.001
  Li_i17  Li1+  0.448  0.398  0.281  0.001
  Li_i17  Li1+  0.248  0.398  0.681  0.001
  Li_i17  Li1+  0.848  0.398  0.081  0.001
  Li_i17  Li1+  0.048  0.398  0.081  0.001
  Li_i17  Li1+  0.648  0.598  0.081  0.001
  Li_i17  Li1+  0.448  0.798  0.881  0.001
  Li_i17  Li1+  0.248  0.798  0.681  0.001
  Li_i17  Li1+  0.048  0.798  0.081  0.001
  Li_i17  Li1+  0.048  0.998  0.681  0.001
  Li_i17  Li1+  0.248  0.998  0.681  0.001
  Li_i17  Li1+  0.848  0.798  0.481  0.001
  Li_i17  Li1+  0.848  0.598  0.281  0.001
  Li_i17  Li1+  0.848  0.998  0.681  0.001
  Li_i17  Li1+  0.848  0.198  0.081  0.001
  Li_i17  Li1+  0.648  0.798  0.081  0.001
  Li_i17  Li1+  0.248  0.598  0.081  0.001
  Li_i17  Li1+  0.648  0.998  0.081  0.001
  Li_i17  Li1+  0.448  0.998  0.681  0.001
  Li_i17  Li1+  0.648  0.398  0.281  0.001
  Li_i17  Li1+  0.048  0.398  0.281  0.001
  Li_i17  Li1+  0.248  0.798  0.281  0.001
  Li_i17  Li1+  0.648  0.198  0.481  0.001
  Li_i17  Li1+  0.048  0.398  0.681  0.001
  Li_i17  Li1+  0.448  0.798  0.281  0.001
  Li_i17  Li1+  0.848  0.398  0.281  0.001
  Li_i17  Li1+  0.248  0.598  0.481  0.001
  Li_i17  Li1+  0.248  0.598  0.881  0.001
  Li_i17  Li1+  0.248  0.398  0.081  0.001
  Li_i17  Li1+  0.448  0.198  0.281  0.001
  Li_i17  Li1+  0.448  0.598  0.681  0.001
  Li_i17  Li1+  0.648  0.598  0.281  0.001
  Li_i17  Li1+  0.848  0.998  0.881  0.001
  Li_i17  Li1+  0.848  0.798  0.681  0.001
  Li_i17  Li1+  0.248  0.198  0.481  0.001
  Li_i17  Li1+  0.848  0.598  0.481  0.001
  Li_i18  Li1+  0.856  0.042  0.514  0.001
  Li_i18  Li1+  0.456  0.442  0.514  0.001
  Li_i18  Li1+  0.056  0.242  0.514  0.001
  Li_i18  Li1+  0.056  0.242  0.314  0.001
  Li_i18  Li1+  0.256  0.242  0.914  0.001
  Li_i18  Li1+  0.256  0.842  0.314  0.001
  Li_i18  Li1+  0.456  0.842  0.514  0.001
  Li_i18  Li1+  0.856  0.442  0.714  0.001
  Li_i18  Li1+  0.656  0.442  0.714  0.001
  Li_i18  Li1+  0.056  0.842  0.914  0.001
  Li_i18  Li1+  0.056  0.042  0.114  0.001
  Li_i18  Li1+  0.456  0.042  0.314  0.001
  Li_i18  Li1+  0.856  0.642  0.914  0.001
  Li_i18  Li1+  0.256  0.042  0.714  0.001
  Li_i18  Li1+  0.056  0.642  0.514  0.001
  Li_i18  Li1+  0.256  0.242  0.314  0.001
  Li_i18  Li1+  0.856  0.242  0.714  0.001
  Li_i18  Li1+  0.656  0.042  0.314  0.001
  Li_i18  Li1+  0.256  0.442  0.314  0.001
  Li_i18  Li1+  0.656  0.642  0.714  0.001
  Li_i18  Li1+  0.656  0.242  0.914  0.001
  Li_i18  Li1+  0.256  0.642  0.914  0.001
  Li_i18  Li1+  0.656  0.842  0.714  0.001
  Li_i18  Li1+  0.856  0.042  0.714  0.001
  Li_i18  Li1+  0.056  0.842  0.714  0.001
  Li_i18  Li1+  0.656  0.242  0.114  0.001
  Li_i18  Li1+  0.456  0.642  0.914  0.001
  Li_i18  Li1+  0.456  0.042  0.914  0.001
  Li_i18  Li1+  0.056  0.042  0.714  0.001
  Li_i18  Li1+  0.856  0.442  0.914  0.001
  Li_i18  Li1+  0.256  0.442  0.714  0.001
  Li_i18  Li1+  0.256  0.642  0.514  0.001
  Li_i18  Li1+  0.456  0.242  0.514  0.001
  Li_i18  Li1+  0.856  0.842  0.114  0.001
  Li_i18  Li1+  0.456  0.642  0.314  0.001
  Li_i18  Li1+  0.656  0.442  0.914  0.001
  Li_i18  Li1+  0.256  0.842  0.914  0.001
  Li_i18  Li1+  0.456  0.442  0.714  0.001
  Li_i18  Li1+  0.456  0.442  0.114  0.001
  Li_i18  Li1+  0.456  0.842  0.714  0.001
  Li_i18  Li1+  0.856  0.242  0.914  0.001
  Li_i18  Li1+  0.056  0.642  0.714  0.001
  Li_i18  Li1+  0.256  0.642  0.114  0.001
  Li_i18  Li1+  0.056  0.442  0.514  0.001
  Li_i18  Li1+  0.656  0.642  0.914  0.001
  Li_i18  Li1+  0.056  0.842  0.514  0.001
  Li_i18  Li1+  0.056  0.642  0.914  0.001
  Li_i18  Li1+  0.856  0.042  0.914  0.001
  Li_i18  Li1+  0.656  0.842  0.914  0.001
  Li_i18  Li1+  0.656  0.442  0.114  0.001
  Li_i18  Li1+  0.056  0.242  0.714  0.001
  Li_i18  Li1+  0.856  0.642  0.114  0.001
  Li_i18  Li1+  0.656  0.042  0.514  0.001
  Li_i18  Li1+  0.256  0.042  0.514  0.001
  Li_i18  Li1+  0.656  0.242  0.314  0.001
  Li_i18  Li1+  0.256  0.242  0.714  0.001
  Li_i18  Li1+  0.056  0.842  0.314  0.001
  Li_i18  Li1+  0.456  0.042  0.514  0.001
  Li_i18  Li1+  0.856  0.842  0.314  0.001
  Li_i18  Li1+  0.456  0.842  0.114  0.001
  Li_i18  Li1+  0.256  0.842  0.514  0.001
  Li_i18  Li1+  0.056  0.842  0.114  0.001
  Li_i18  Li1+  0.656  0.642  0.114  0.001
  Li_i18  Li1+  0.256  0.242  0.114  0.001
  Li_i18  Li1+  0.856  0.442  0.114  0.001
  Li_i18  Li1+  0.056  0.042  0.914  0.001
  Li_i18  Li1+  0.056  0.442  0.914  0.001
  Li_i18  Li1+  0.256  0.442  0.114  0.001
  Li_i18  Li1+  0.456  0.242  0.114  0.001
  Li_i18  Li1+  0.056  0.042  0.314  0.001
  Li_i18  Li1+  0.656  0.842  0.114  0.001
  Li_i18  Li1+  0.856  0.242  0.114  0.001
  Li_i18  Li1+  0.856  0.642  0.314  0.001
  Li_i18  Li1+  0.456  0.642  0.514  0.001
  Li_i18  Li1+  0.456  0.242  0.714  0.001
  Li_i18  Li1+  0.856  0.042  0.114  0.001
  Li_i18  Li1+  0.456  0.842  0.914  0.001
  Li_i18  Li1+  0.656  0.442  0.314  0.001
  Li_i18  Li1+  0.256  0.842  0.114  0.001
  Li_i18  Li1+  0.056  0.242  0.914  0.001
  Li_i18  Li1+  0.856  0.842  0.514  0.001
  Li_i18  Li1+  0.456  0.442  0.914  0.001
  Li_i18  Li1+  0.456  0.442  0.314  0.001
  Li_i18  Li1+  0.256  0.042  0.314  0.001
  Li_i18  Li1+  0.656  0.242  0.514  0.001
  Li_i18  Li1+  0.656  0.042  0.714  0.001
  Li_i18  Li1+  0.056  0.442  0.314  0.001
  Li_i18  Li1+  0.856  0.442  0.314  0.001
  Li_i18  Li1+  0.256  0.442  0.514  0.001
  Li_i18  Li1+  0.656  0.642  0.314  0.001
  Li_i18  Li1+  0.456  0.042  0.114  0.001
  Li_i18  Li1+  0.256  0.642  0.714  0.001
  Li_i18  Li1+  0.456  0.842  0.314  0.001
  Li_i18  Li1+  0.856  0.642  0.514  0.001
  Li_i18  Li1+  0.056  0.442  0.114  0.001
  Li_i18  Li1+  0.856  0.242  0.314  0.001
  Li_i18  Li1+  0.056  0.642  0.114  0.001
  Li_i18  Li1+  0.656  0.842  0.314  0.001
  Li_i18  Li1+  0.256  0.642  0.314  0.001
  Li_i18  Li1+  0.256  0.442  0.914  0.001
  Li_i18  Li1+  0.856  0.042  0.314  0.001
  Li_i18  Li1+  0.856  0.842  0.714  0.001
  Li_i18  Li1+  0.256  0.242  0.514  0.001
  Li_i18  Li1+  0.056  0.242  0.114  0.001
  Li_i18  Li1+  0.456  0.042  0.714  0.001
  Li_i18  Li1+  0.656  0.442  0.514  0.001
  Li_i18  Li1+  0.056  0.442  0.714  0.001
  Li_i18  Li1+  0.256  0.842  0.714  0.001
  Li_i18  Li1+  0.256  0.042  0.914  0.001
  Li_i18  Li1+  0.656  0.042  0.114  0.001
  Li_i18  Li1+  0.856  0.442  0.514  0.001
  Li_i18  Li1+  0.456  0.642  0.714  0.001
  Li_i18  Li1+  0.256  0.042  0.114  0.001
  Li_i18  Li1+  0.656  0.242  0.714  0.001
  Li_i18  Li1+  0.456  0.242  0.314  0.001
  Li_i18  Li1+  0.856  0.642  0.714  0.001
  Li_i18  Li1+  0.656  0.042  0.914  0.001
  Li_i18  Li1+  0.656  0.642  0.514  0.001
  Li_i18  Li1+  0.856  0.242  0.514  0.001
  Li_i18  Li1+  0.456  0.242  0.914  0.001
  Li_i18  Li1+  0.056  0.042  0.514  0.001
  Li_i18  Li1+  0.856  0.842  0.914  0.001
  Li_i18  Li1+  0.456  0.642  0.114  0.001
  Li_i18  Li1+  0.656  0.842  0.514  0.001
  Li_i18  Li1+  0.056  0.642  0.314  0.001
  Li_i19  Li1+  0.454  0.452  0.969  0.001
  Li_i19  Li1+  0.854  0.052  0.769  0.001
  Li_i19  Li1+  0.654  0.252  0.369  0.001
  Li_i19  Li1+  0.654  0.452  0.169  0.001
  Li_i19  Li1+  0.054  0.452  0.569  0.001
  Li_i19  Li1+  0.454  0.052  0.769  0.001
  Li_i19  Li1+  0.054  0.252  0.969  0.001
  Li_i19  Li1+  0.854  0.652  0.969  0.001
  Li_i19  Li1+  0.054  0.252  0.569  0.001
  Li_i19  Li1+  0.254  0.852  0.369  0.001
  Li_i19  Li1+  0.254  0.452  0.769  0.001
  Li_i19  Li1+  0.654  0.652  0.969  0.001
  Li_i19  Li1+  0.254  0.252  0.169  0.001
  Li_i19  Li1+  0.454  0.852  0.969  0.001
  Li_i19  Li1+  0.254  0.252  0.769  0.001
  Li_i19  Li1+  0.254  0.052  0.369  0.001
  Li_i19  Li1+  0.454  0.252  0.369  0.001
  Li_i19  Li1+  0.254  0.652  0.969  0.001
  Li_i19  Li1+  0.254  0.652  0.169  0.001
  Li_i19  Li1+  0.854  0.452  0.969  0.001
  Li_i19  Li1+  0.654  0.852  0.969  0.001
  Li_i19  Li1+  0.254  0.652  0.569  0.001
  Li_i19  Li1+  0.454  0.852  0.369  0.001
  Li_i19  Li1+  0.654  0.652  0.169  0.001
  Li_i19  Li1+  0.854  0.252  0.969  0.001
  Li_i19  Li1+  0.454  0.252  0.969  0.001
  Li_i19  Li1+  0.854  0.052  0.969  0.001
  Li_i19  Li1+  0.454  0.052  0.369  0.001
  Li_i19  Li1+  0.654  0.052  0.769  0.001
  Li_i19  Li1+  0.854  0.852  0.169  0.001
  Li_i19  Li1+  0.054  0.452  0.169  0.001
  Li_i19  Li1+  0.054  0.652  0.569  0.001
  Li_i19  Li1+  0.654  0.452  0.369  0.001
  Li_i19  Li1+  0.054  0.452  0.369  0.001
  Li_i19  Li1+  0.654  0.252  0.569  0.001
  Li_i19  Li1+  0.054  0.452  0.969  0.001
  Li_i19  Li1+  0.454  0.452  0.569  0.001
  Li_i19  Li1+  0.454  0.652  0.769  0.001
  Li_i19  Li1+  0.654  0.852  0.169  0.001
  Li_i19  Li1+  0.254  0.052  0.169  0.001
  Li_i19  Li1+  0.454  0.652  0.169  0.001
  Li_i19  Li1+  0.054  0.652  0.769  0.001
  Li_i19  Li1+  0.854  0.652  0.169  0.001
  Li_i19  Li1+  0.254  0.452  0.169  0.001
  Li_i19  Li1+  0.254  0.852  0.969  0.001
  Li_i19  Li1+  0.054  0.052  0.969  0.001
  Li_i19  Li1+  0.654  0.052  0.169  0.001
  Li_i19  Li1+  0.854  0.052  0.169  0.001
  Li_i19  Li1+  0.454  0.052  0.969  0.001
  Li_i19  Li1+  0.854  0.452  0.169  0.001
  Li_i19  Li1+  0.054  0.052  0.369  0.001
  Li_i19  Li1+  0.854  0.252  0.169  0.001
  Li_i19  Li1+  0.654  0.652  0.369  0.001
  Li_i19  Li1+  0.254  0.052  0.969  0.001
  Li_i19  Li1+  0.254  0.252  0.569  0.001
  Li_i19  Li1+  0.854  0.852  0.369  0.001
  Li_i19  Li1+  0.054  0.852  0.969  0.001
  Li_i19  Li1+  0.054  0.652  0.969  0.001
  Li_i19  Li1+  0.254  0.452  0.569  0.001
  Li_i19  Li1+  0.654  0.052  0.969  0.001
  Li_i19  Li1+  0.654  0.452  0.569  0.001
  Li_i19  Li1+  0.454  0.252  0.569  0.001
  Li_i19  Li1+  0.254  0.852  0.569  0.001
  Li_i19  Li1+  0.654  0.252  0.769  0.001
  Li_i19  Li1+  0.854  0.652  0.369  0.001
  Li_i19  Li1+  0.654  0.852  0.369  0.001
  Li_i19  Li1+  0.454  0.852  0.569  0.001
  Li_i19  Li1+  0.054  0.852  0.769  0.001
  Li_i19  Li1+  0.054  0.052  0.169  0.001
  Li_i19  Li1+  0.054  0.252  0.169  0.001
  Li_i19  Li1+  0.454  0.452  0.169  0.001
  Li_i19  Li1+  0.054  0.852  0.569  0.001
  Li_i19  Li1+  0.454  0.052  0.569  0.001
  Li_i19  Li1+  0.854  0.452  0.369  0.001
  Li_i19  Li1+  0.854  0.052  0.369  0.001
  Li_i19  Li1+  0.854  0.252  0.369  0.001
  Li_i19  Li1+  0.454  0.652  0.969  0.001
  Li_i19  Li1+  0.454  0.452  0.769  0.001
  Li_i19  Li1+  0.854  0.852  0.569  0.001
  Li_i19  Li1+  0.254  0.852  0.169  0.001
  Li_i19  Li1+  0.454  0.652  0.369  0.001
  Li_i19  Li1+  0.654  0.652  0.569  0.001
  Li_i19  Li1+  0.654  0.052  0.369  0.001
  Li_i19  Li1+  0.254  0.452  0.969  0.001
  Li_i19  Li1+  0.254  0.052  0.769  0.001
  Li_i19  Li1+  0.254  0.652  0.769  0.001
  Li_i19  Li1+  0.854  0.652  0.569  0.001
  Li_i19  Li1+  0.254  0.652  0.369  0.001
  Li_i19  Li1+  0.054  0.852  0.169  0.001
  Li_i19  Li1+  0.654  0.452  0.769  0.001
  Li_i19  Li1+  0.054  0.852  0.369  0.001
  Li_i19  Li1+  0.654  0.852  0.569  0.001
  Li_i19  Li1+  0.054  0.452  0.769  0.001
  Li_i19  Li1+  0.654  0.252  0.169  0.001
  Li_i19  Li1+  0.254  0.252  0.969  0.001
  Li_i19  Li1+  0.654  0.252  0.969  0.001
  Li_i19  Li1+  0.454  0.252  0.169  0.001
  Li_i19  Li1+  0.854  0.452  0.569  0.001
  Li_i19  Li1+  0.054  0.652  0.169  0.001
  Li_i19  Li1+  0.854  0.252  0.569  0.001
  Li_i19  Li1+  0.854  0.852  0.769  0.001
  Li_i19  Li1+  0.854  0.052  0.569  0.001
  Li_i19  Li1+  0.454  0.852  0.769  0.001
  Li_i19  Li1+  0.454  0.052  0.169  0.001
  Li_i19  Li1+  0.254  0.252  0.369  0.001
  Li_i19  Li1+  0.054  0.252  0.769  0.001
  Li_i19  Li1+  0.454  0.252  0.769  0.001
  Li_i19  Li1+  0.054  0.052  0.769  0.001
  Li_i19  Li1+  0.654  0.652  0.769  0.001
  Li_i19  Li1+  0.854  0.652  0.769  0.001
  Li_i19  Li1+  0.054  0.052  0.569  0.001
  Li_i19  Li1+  0.254  0.052  0.569  0.001
  Li_i19  Li1+  0.454  0.852  0.169  0.001
  Li_i19  Li1+  0.054  0.252  0.369  0.001
  Li_i19  Li1+  0.254  0.852  0.769  0.001
  Li_i19  Li1+  0.654  0.052  0.569  0.001
  Li_i19  Li1+  0.454  0.452  0.369  0.001
  Li_i19  Li1+  0.654  0.852  0.769  0.001
  Li_i19  Li1+  0.654  0.452  0.969  0.001
  Li_i19  Li1+  0.254  0.452  0.369  0.001
  Li_i19  Li1+  0.854  0.452  0.769  0.001
  Li_i19  Li1+  0.854  0.852  0.969  0.001
  Li_i19  Li1+  0.054  0.652  0.369  0.001
  Li_i19  Li1+  0.454  0.652  0.569  0.001
  Li_i19  Li1+  0.854  0.252  0.769  0.001
  Li_i20  Li1+  0.496  0.667  0.250  0.001
  Li_i20  Li1+  0.496  0.667  0.850  0.001
  Li_i20  Li1+  0.896  0.667  0.850  0.001
  Li_i20  Li1+  0.696  0.067  0.850  0.001
  Li_i20  Li1+  0.896  0.067  0.850  0.001
  Li_i20  Li1+  0.096  0.667  0.250  0.001
  Li_i20  Li1+  0.696  0.867  0.050  0.001
  Li_i20  Li1+  0.296  0.667  0.050  0.001
  Li_i20  Li1+  0.896  0.267  0.850  0.001
  Li_i20  Li1+  0.896  0.467  0.850  0.001
  Li_i20  Li1+  0.096  0.067  0.450  0.001
  Li_i20  Li1+  0.296  0.867  0.250  0.001
  Li_i20  Li1+  0.296  0.467  0.050  0.001
  Li_i20  Li1+  0.496  0.267  0.650  0.001
  Li_i20  Li1+  0.696  0.667  0.250  0.001
  Li_i20  Li1+  0.696  0.267  0.650  0.001
  Li_i20  Li1+  0.296  0.667  0.450  0.001
  Li_i20  Li1+  0.696  0.467  0.450  0.001
  Li_i20  Li1+  0.296  0.667  0.850  0.001
  Li_i20  Li1+  0.296  0.267  0.450  0.001
  Li_i20  Li1+  0.496  0.067  0.650  0.001
  Li_i20  Li1+  0.896  0.067  0.050  0.001
  Li_i20  Li1+  0.696  0.067  0.250  0.001
  Li_i20  Li1+  0.096  0.267  0.650  0.001
  Li_i20  Li1+  0.096  0.267  0.250  0.001
  Li_i20  Li1+  0.896  0.867  0.050  0.001
  Li_i20  Li1+  0.296  0.067  0.650  0.001
  Li_i20  Li1+  0.096  0.467  0.850  0.001
  Li_i20  Li1+  0.496  0.467  0.250  0.001
  Li_i20  Li1+  0.096  0.067  0.650  0.001
  Li_i20  Li1+  0.896  0.267  0.050  0.001
  Li_i20  Li1+  0.096  0.667  0.450  0.001
  Li_i20  Li1+  0.496  0.867  0.650  0.001
  Li_i20  Li1+  0.896  0.667  0.050  0.001
  Li_i20  Li1+  0.696  0.867  0.250  0.001
  Li_i20  Li1+  0.896  0.467  0.050  0.001
  Li_i20  Li1+  0.096  0.267  0.450  0.001
  Li_i20  Li1+  0.296  0.467  0.450  0.001
  Li_i20  Li1+  0.496  0.067  0.250  0.001
  Li_i20  Li1+  0.696  0.267  0.050  0.001
  Li_i20  Li1+  0.496  0.467  0.850  0.001
  Li_i20  Li1+  0.496  0.867  0.050  0.001
  Li_i20  Li1+  0.096  0.067  0.050  0.001
  Li_i20  Li1+  0.696  0.667  0.450  0.001
  Li_i20  Li1+  0.496  0.267  0.250  0.001
  Li_i20  Li1+  0.496  0.667  0.450  0.001
  Li_i20  Li1+  0.696  0.467  0.650  0.001
  Li_i20  Li1+  0.696  0.267  0.850  0.001
  Li_i20  Li1+  0.896  0.067  0.250  0.001
  Li_i20  Li1+  0.096  0.467  0.650  0.001
  Li_i20  Li1+  0.296  0.067  0.450  0.001
  Li_i20  Li1+  0.296  0.267  0.250  0.001
  Li_i20  Li1+  0.896  0.867  0.250  0.001
  Li_i20  Li1+  0.096  0.667  0.650  0.001
  Li_i20  Li1+  0.296  0.867  0.850  0.001
  Li_i20  Li1+  0.896  0.267  0.250  0.001
  Li_i20  Li1+  0.896  0.667  0.250  0.001
  Li_i20  Li1+  0.296  0.267  0.850  0.001
  Li_i20  Li1+  0.696  0.067  0.450  0.001
  Li_i20  Li1+  0.496  0.267  0.850  0.001
  Li_i20  Li1+  0.896  0.467  0.250  0.001
  Li_i20  Li1+  0.296  0.467  0.850  0.001
  Li_i20  Li1+  0.696  0.867  0.450  0.001
  Li_i20  Li1+  0.096  0.267  0.850  0.001
  Li_i20  Li1+  0.096  0.267  0.050  0.001
  Li_i20  Li1+  0.096  0.667  0.050  0.001
  Li_i20  Li1+  0.296  0.867  0.450  0.001
  Li_i20  Li1+  0.496  0.067  0.850  0.001
  Li_i20  Li1+  0.296  0.667  0.250  0.001
  Li_i20  Li1+  0.296  0.067  0.250  0.001
  Li_i20  Li1+  0.696  0.267  0.250  0.001
  Li_i20  Li1+  0.696  0.667  0.650  0.001
  Li_i20  Li1+  0.496  0.867  0.850  0.001
  Li_i20  Li1+  0.496  0.467  0.450  0.001
  Li_i20  Li1+  0.896  0.067  0.450  0.001
  Li_i20  Li1+  0.296  0.867  0.050  0.001
  Li_i20  Li1+  0.896  0.867  0.450  0.001
  Li_i20  Li1+  0.696  0.467  0.850  0.001
  Li_i20  Li1+  0.296  0.667  0.650  0.001
  Li_i20  Li1+  0.896  0.667  0.450  0.001
  Li_i20  Li1+  0.696  0.467  0.050  0.001
  Li_i20  Li1+  0.896  0.267  0.450  0.001
  Li_i20  Li1+  0.496  0.867  0.250  0.001
  Li_i20  Li1+  0.096  0.667  0.850  0.001
  Li_i20  Li1+  0.096  0.067  0.250  0.001
  Li_i20  Li1+  0.896  0.467  0.450  0.001
  Li_i20  Li1+  0.496  0.667  0.050  0.001
  Li_i20  Li1+  0.096  0.467  0.450  0.001
  Li_i20  Li1+  0.496  0.667  0.650  0.001
  Li_i20  Li1+  0.696  0.867  0.650  0.001
  Li_i20  Li1+  0.296  0.267  0.050  0.001
  Li_i20  Li1+  0.296  0.067  0.050  0.001
  Li_i20  Li1+  0.496  0.267  0.450  0.001
  Li_i20  Li1+  0.496  0.067  0.450  0.001
  Li_i20  Li1+  0.696  0.067  0.650  0.001
  Li_i20  Li1+  0.296  0.467  0.250  0.001
  Li_i20  Li1+  0.096  0.467  0.050  0.001
  Li_i20  Li1+  0.096  0.867  0.050  0.001
  Li_i20  Li1+  0.296  0.267  0.650  0.001
  Li_i20  Li1+  0.896  0.867  0.650  0.001
  Li_i20  Li1+  0.696  0.667  0.850  0.001
  Li_i20  Li1+  0.896  0.067  0.650  0.001
  Li_i20  Li1+  0.096  0.867  0.850  0.001
  Li_i20  Li1+  0.896  0.667  0.650  0.001
  Li_i20  Li1+  0.096  0.867  0.650  0.001
  Li_i20  Li1+  0.496  0.467  0.050  0.001
  Li_i20  Li1+  0.896  0.267  0.650  0.001
  Li_i20  Li1+  0.696  0.267  0.450  0.001
  Li_i20  Li1+  0.096  0.067  0.850  0.001
  Li_i20  Li1+  0.896  0.467  0.650  0.001
  Li_i20  Li1+  0.696  0.667  0.050  0.001
  Li_i20  Li1+  0.296  0.467  0.650  0.001
  Li_i20  Li1+  0.696  0.467  0.250  0.001
  Li_i20  Li1+  0.696  0.067  0.050  0.001
  Li_i20  Li1+  0.496  0.067  0.050  0.001
  Li_i20  Li1+  0.096  0.867  0.450  0.001
  Li_i20  Li1+  0.096  0.867  0.250  0.001
  Li_i20  Li1+  0.696  0.867  0.850  0.001
  Li_i20  Li1+  0.496  0.467  0.650  0.001
  Li_i20  Li1+  0.296  0.067  0.850  0.001
  Li_i20  Li1+  0.496  0.267  0.050  0.001
  Li_i20  Li1+  0.896  0.867  0.850  0.001
  Li_i20  Li1+  0.496  0.867  0.450  0.001
  Li_i20  Li1+  0.096  0.467  0.250  0.001
  Li_i20  Li1+  0.296  0.867  0.650  0.001
  Li_i21  Li1+  0.656  0.267  0.954  0.001
  Li_i21  Li1+  0.456  0.067  0.154  0.001
  Li_i21  Li1+  0.256  0.667  0.554  0.001
  Li_i21  Li1+  0.656  0.867  0.354  0.001
  Li_i21  Li1+  0.456  0.667  0.154  0.001
  Li_i21  Li1+  0.656  0.467  0.754  0.001
  Li_i21  Li1+  0.256  0.267  0.354  0.001
  Li_i21  Li1+  0.656  0.667  0.554  0.001
  Li_i21  Li1+  0.256  0.867  0.754  0.001
  Li_i21  Li1+  0.056  0.267  0.354  0.001
  Li_i21  Li1+  0.856  0.267  0.154  0.001
  Li_i21  Li1+  0.456  0.867  0.954  0.001
  Li_i21  Li1+  0.456  0.867  0.354  0.001
  Li_i21  Li1+  0.256  0.867  0.354  0.001
  Li_i21  Li1+  0.456  0.667  0.754  0.001
  Li_i21  Li1+  0.256  0.667  0.954  0.001
  Li_i21  Li1+  0.056  0.867  0.354  0.001
  Li_i21  Li1+  0.456  0.467  0.154  0.001
  Li_i21  Li1+  0.656  0.267  0.354  0.001
  Li_i21  Li1+  0.856  0.467  0.154  0.001
  Li_i21  Li1+  0.256  0.467  0.554  0.001
  Li_i21  Li1+  0.856  0.867  0.154  0.001
  Li_i21  Li1+  0.456  0.267  0.154  0.001
  Li_i21  Li1+  0.256  0.067  0.154  0.001
  Li_i21  Li1+  0.856  0.667  0.154  0.001
  Li_i21  Li1+  0.856  0.067  0.354  0.001
  Li_i21  Li1+  0.056  0.867  0.754  0.001
  Li_i21  Li1+  0.256  0.267  0.954  0.001
  Li_i21  Li1+  0.056  0.867  0.954  0.001
  Li_i21  Li1+  0.056  0.867  0.554  0.001
  Li_i21  Li1+  0.056  0.067  0.354  0.001
  Li_i21  Li1+  0.656  0.867  0.554  0.001
  Li_i21  Li1+  0.656  0.467  0.154  0.001
  Li_i21  Li1+  0.456  0.467  0.754  0.001
  Li_i21  Li1+  0.256  0.267  0.154  0.001
  Li_i21  Li1+  0.656  0.467  0.954  0.001
  Li_i21  Li1+  0.856  0.267  0.354  0.001
  Li_i21  Li1+  0.656  0.667  0.754  0.001
  Li_i21  Li1+  0.056  0.467  0.754  0.001
  Li_i21  Li1+  0.656  0.067  0.754  0.001
  Li_i21  Li1+  0.456  0.067  0.754  0.001
  Li_i21  Li1+  0.256  0.467  0.954  0.001
  Li_i21  Li1+  0.456  0.267  0.754  0.001
  Li_i21  Li1+  0.056  0.467  0.154  0.001
  Li_i21  Li1+  0.056  0.667  0.554  0.001
  Li_i21  Li1+  0.856  0.467  0.354  0.001
  Li_i21  Li1+  0.456  0.667  0.354  0.001
  Li_i21  Li1+  0.856  0.667  0.354  0.001
  Li_i21  Li1+  0.656  0.067  0.154  0.001
  Li_i21  Li1+  0.856  0.867  0.354  0.001
  Li_i21  Li1+  0.056  0.267  0.754  0.001
  Li_i21  Li1+  0.056  0.467  0.554  0.001
  Li_i21  Li1+  0.856  0.067  0.554  0.001
  Li_i21  Li1+  0.056  0.267  0.154  0.001
  Li_i21  Li1+  0.456  0.867  0.554  0.001
  Li_i21  Li1+  0.656  0.267  0.554  0.001
  Li_i21  Li1+  0.456  0.667  0.954  0.001
  Li_i21  Li1+  0.456  0.067  0.354  0.001
  Li_i21  Li1+  0.256  0.667  0.354  0.001
  Li_i21  Li1+  0.656  0.867  0.754  0.001
  Li_i21  Li1+  0.256  0.267  0.754  0.001
  Li_i21  Li1+  0.256  0.467  0.354  0.001
  Li_i21  Li1+  0.856  0.267  0.554  0.001
  Li_i21  Li1+  0.256  0.867  0.954  0.001
  Li_i21  Li1+  0.656  0.467  0.354  0.001
  Li_i21  Li1+  0.056  0.667  0.154  0.001
  Li_i21  Li1+  0.656  0.667  0.954  0.001
  Li_i21  Li1+  0.456  0.467  0.354  0.001
  Li_i21  Li1+  0.656  0.667  0.154  0.001
  Li_i21  Li1+  0.256  0.667  0.754  0.001
  Li_i21  Li1+  0.456  0.267  0.354  0.001
  Li_i21  Li1+  0.856  0.667  0.554  0.001
  Li_i21  Li1+  0.856  0.467  0.554  0.001
  Li_i21  Li1+  0.256  0.067  0.954  0.001
  Li_i21  Li1+  0.856  0.867  0.554  0.001
  Li_i21  Li1+  0.656  0.067  0.954  0.001
  Li_i21  Li1+  0.256  0.867  0.554  0.001
  Li_i21  Li1+  0.256  0.867  0.154  0.001
  Li_i21  Li1+  0.056  0.667  0.754  0.001
  Li_i21  Li1+  0.856  0.067  0.754  0.001
  Li_i21  Li1+  0.056  0.467  0.354  0.001
  Li_i21  Li1+  0.056  0.267  0.554  0.001
  Li_i21  Li1+  0.456  0.467  0.954  0.001
  Li_i21  Li1+  0.056  0.067  0.954  0.001
  Li_i21  Li1+  0.656  0.067  0.354  0.001
  Li_i21  Li1+  0.256  0.067  0.754  0.001
  Li_i21  Li1+  0.056  0.067  0.754  0.001
  Li_i21  Li1+  0.656  0.267  0.754  0.001
  Li_i21  Li1+  0.856  0.267  0.754  0.001
  Li_i21  Li1+  0.656  0.867  0.954  0.001
  Li_i21  Li1+  0.456  0.267  0.954  0.001
  Li_i21  Li1+  0.456  0.067  0.954  0.001
  Li_i21  Li1+  0.456  0.867  0.754  0.001
  Li_i21  Li1+  0.456  0.667  0.554  0.001
  Li_i21  Li1+  0.456  0.867  0.154  0.001
  Li_i21  Li1+  0.656  0.467  0.554  0.001
  Li_i21  Li1+  0.856  0.667  0.754  0.001
  Li_i21  Li1+  0.856  0.467  0.754  0.001
  Li_i21  Li1+  0.856  0.867  0.754  0.001
  Li_i21  Li1+  0.656  0.867  0.154  0.001
  Li_i21  Li1+  0.256  0.467  0.754  0.001
  Li_i21  Li1+  0.656  0.667  0.354  0.001
  Li_i21  Li1+  0.256  0.267  0.554  0.001
  Li_i21  Li1+  0.056  0.667  0.954  0.001
  Li_i21  Li1+  0.056  0.067  0.154  0.001
  Li_i21  Li1+  0.256  0.467  0.154  0.001
  Li_i21  Li1+  0.056  0.267  0.954  0.001
  Li_i21  Li1+  0.856  0.067  0.954  0.001
  Li_i21  Li1+  0.056  0.667  0.354  0.001
  Li_i21  Li1+  0.456  0.067  0.554  0.001
  Li_i21  Li1+  0.656  0.267  0.154  0.001
  Li_i21  Li1+  0.256  0.067  0.554  0.001
  Li_i21  Li1+  0.256  0.667  0.154  0.001
  Li_i21  Li1+  0.456  0.467  0.554  0.001
  Li_i21  Li1+  0.056  0.067  0.554  0.001
  Li_i21  Li1+  0.056  0.867  0.154  0.001
  Li_i21  Li1+  0.856  0.267  0.954  0.001
  Li_i21  Li1+  0.456  0.267  0.554  0.001
  Li_i21  Li1+  0.056  0.467  0.954  0.001
  Li_i21  Li1+  0.856  0.067  0.154  0.001
  Li_i21  Li1+  0.256  0.067  0.354  0.001
  Li_i21  Li1+  0.856  0.867  0.954  0.001
  Li_i21  Li1+  0.856  0.667  0.954  0.001
  Li_i21  Li1+  0.656  0.067  0.554  0.001
  Li_i21  Li1+  0.856  0.467  0.954  0.001
  Li_i22  Li1+  0.098  0.500  0.647  0.001
  Li_i22  Li1+  0.698  0.900  0.447  0.001
  Li_i22  Li1+  0.698  0.700  0.647  0.001
  Li_i22  Li1+  0.498  0.500  0.847  0.001
  Li_i22  Li1+  0.498  0.100  0.447  0.001
  Li_i22  Li1+  0.898  0.500  0.047  0.001
  Li_i22  Li1+  0.698  0.300  0.447  0.001
  Li_i22  Li1+  0.098  0.100  0.447  0.001
  Li_i22  Li1+  0.298  0.700  0.847  0.001
  Li_i22  Li1+  0.098  0.500  0.447  0.001
  Li_i22  Li1+  0.298  0.900  0.247  0.001
  Li_i22  Li1+  0.498  0.100  0.047  0.001
  Li_i22  Li1+  0.298  0.900  0.647  0.001
  Li_i22  Li1+  0.298  0.100  0.847  0.001
  Li_i22  Li1+  0.898  0.700  0.047  0.001
  Li_i22  Li1+  0.498  0.700  0.447  0.001
  Li_i22  Li1+  0.698  0.100  0.847  0.001
  Li_i22  Li1+  0.898  0.900  0.047  0.001
  Li_i22  Li1+  0.898  0.300  0.247  0.001
  Li_i22  Li1+  0.098  0.500  0.247  0.001
  Li_i22  Li1+  0.698  0.500  0.247  0.001
  Li_i22  Li1+  0.098  0.900  0.047  0.001
  Li_i22  Li1+  0.498  0.300  0.447  0.001
  Li_i22  Li1+  0.498  0.900  0.047  0.001
  Li_i22  Li1+  0.698  0.100  0.247  0.001
  Li_i22  Li1+  0.298  0.300  0.647  0.001
  Li_i22  Li1+  0.498  0.900  0.647  0.001
  Li_i22  Li1+  0.898  0.100  0.447  0.001
  Li_i22  Li1+  0.698  0.700  0.047  0.001
  Li_i22  Li1+  0.298  0.500  0.847  0.001
  Li_i22  Li1+  0.698  0.900  0.647  0.001
  Li_i22  Li1+  0.498  0.500  0.447  0.001
  Li_i22  Li1+  0.898  0.500  0.247  0.001
  Li_i22  Li1+  0.698  0.700  0.847  0.001
  Li_i22  Li1+  0.098  0.300  0.047  0.001
  Li_i22  Li1+  0.298  0.100  0.647  0.001
  Li_i22  Li1+  0.098  0.300  0.247  0.001
  Li_i22  Li1+  0.298  0.500  0.247  0.001
  Li_i22  Li1+  0.098  0.700  0.447  0.001
  Li_i22  Li1+  0.898  0.700  0.247  0.001
  Li_i22  Li1+  0.698  0.300  0.647  0.001
  Li_i22  Li1+  0.098  0.900  0.247  0.001
  Li_i22  Li1+  0.098  0.300  0.847  0.001
  Li_i22  Li1+  0.498  0.300  0.047  0.001
  Li_i22  Li1+  0.898  0.300  0.447  0.001
  Li_i22  Li1+  0.298  0.700  0.247  0.001
  Li_i22  Li1+  0.298  0.100  0.447  0.001
  Li_i22  Li1+  0.898  0.900  0.247  0.001
  Li_i22  Li1+  0.498  0.700  0.047  0.001
  Li_i22  Li1+  0.098  0.900  0.447  0.001
  Li_i22  Li1+  0.498  0.500  0.047  0.001
  Li_i22  Li1+  0.298  0.300  0.447  0.001
  Li_i22  Li1+  0.698  0.500  0.447  0.001
  Li_i22  Li1+  0.098  0.900  0.647  0.001
  Li_i22  Li1+  0.698  0.300  0.047  0.001
  Li_i22  Li1+  0.898  0.100  0.647  0.001
  Li_i22  Li1+  0.298  0.100  0.247  0.001
  Li_i22  Li1+  0.498  0.100  0.647  0.001
  Li_i22  Li1+  0.298  0.700  0.647  0.001
  Li_i22  Li1+  0.898  0.500  0.447  0.001
  Li_i22  Li1+  0.698  0.700  0.247  0.001
  Li_i22  Li1+  0.698  0.900  0.847  0.001
  Li_i22  Li1+  0.498  0.700  0.647  0.001
  Li_i22  Li1+  0.098  0.700  0.047  0.001
  Li_i22  Li1+  0.898  0.700  0.447  0.001
  Li_i22  Li1+  0.698  0.900  0.047  0.001
  Li_i22  Li1+  0.698  0.100  0.447  0.001
  Li_i22  Li1+  0.498  0.900  0.247  0.001
  Li_i22  Li1+  0.298  0.100  0.047  0.001
  Li_i22  Li1+  0.298  0.500  0.647  0.001
  Li_i22  Li1+  0.498  0.900  0.847  0.001
  Li_i22  Li1+  0.898  0.300  0.647  0.001
  Li_i22  Li1+  0.898  0.900  0.447  0.001
  Li_i22  Li1+  0.498  0.100  0.247  0.001
  Li_i22  Li1+  0.298  0.900  0.047  0.001
  Li_i22  Li1+  0.498  0.300  0.647  0.001
  Li_i22  Li1+  0.698  0.300  0.847  0.001
  Li_i22  Li1+  0.498  0.500  0.647  0.001
  Li_i22  Li1+  0.298  0.900  0.847  0.001
  Li_i22  Li1+  0.298  0.500  0.047  0.001
  Li_i22  Li1+  0.298  0.900  0.447  0.001
  Li_i22  Li1+  0.098  0.900  0.847  0.001
  Li_i22  Li1+  0.098  0.100  0.847  0.001
  Li_i22  Li1+  0.098  0.100  0.047  0.001
  Li_i22  Li1+  0.698  0.500  0.647  0.001
  Li_i22  Li1+  0.898  0.500  0.647  0.001
  Li_i22  Li1+  0.898  0.100  0.847  0.001
  Li_i22  Li1+  0.298  0.300  0.247  0.001
  Li_i22  Li1+  0.098  0.300  0.647  0.001
  Li_i22  Li1+  0.098  0.300  0.447  0.001
  Li_i22  Li1+  0.898  0.700  0.647  0.001
  Li_i22  Li1+  0.698  0.300  0.247  0.001
  Li_i22  Li1+  0.098  0.700  0.647  0.001
  Li_i22  Li1+  0.898  0.100  0.047  0.001
  Li_i22  Li1+  0.698  0.700  0.447  0.001
  Li_i22  Li1+  0.698  0.900  0.247  0.001
  Li_i22  Li1+  0.498  0.700  0.247  0.001
  Li_i22  Li1+  0.898  0.900  0.647  0.001
  Li_i22  Li1+  0.498  0.300  0.247  0.001
  Li_i22  Li1+  0.098  0.500  0.047  0.001
  Li_i22  Li1+  0.298  0.700  0.047  0.001
  Li_i22  Li1+  0.898  0.300  0.847  0.001
  Li_i22  Li1+  0.098  0.100  0.247  0.001
  Li_i22  Li1+  0.498  0.500  0.247  0.001
  Li_i22  Li1+  0.098  0.500  0.847  0.001
  Li_i22  Li1+  0.698  0.100  0.647  0.001
  Li_i22  Li1+  0.498  0.700  0.847  0.001
  Li_i22  Li1+  0.298  0.300  0.047  0.001
  Li_i22  Li1+  0.298  0.300  0.847  0.001
  Li_i22  Li1+  0.698  0.500  0.047  0.001
  Li_i22  Li1+  0.698  0.100  0.047  0.001
  Li_i22  Li1+  0.498  0.900  0.447  0.001
  Li_i22  Li1+  0.898  0.500  0.847  0.001
  Li_i22  Li1+  0.298  0.500  0.447  0.001
  Li_i22  Li1+  0.898  0.300  0.047  0.001
  Li_i22  Li1+  0.498  0.100  0.847  0.001
  Li_i22  Li1+  0.898  0.700  0.847  0.001
  Li_i22  Li1+  0.098  0.700  0.247  0.001
  Li_i22  Li1+  0.298  0.700  0.447  0.001
  Li_i22  Li1+  0.698  0.500  0.847  0.001
  Li_i22  Li1+  0.098  0.700  0.847  0.001
  Li_i22  Li1+  0.098  0.100  0.647  0.001
  Li_i22  Li1+  0.898  0.900  0.847  0.001
  Li_i22  Li1+  0.498  0.300  0.847  0.001
  Li_i22  Li1+  0.898  0.100  0.247  0.001
  Li_i23  Li1+  0.498  0.310  0.251  0.001
  Li_i23  Li1+  0.098  0.310  0.851  0.001
  Li_i23  Li1+  0.698  0.910  0.651  0.001
  Li_i23  Li1+  0.698  0.310  0.051  0.001
  Li_i23  Li1+  0.898  0.110  0.451  0.001
  Li_i23  Li1+  0.298  0.710  0.851  0.001
  Li_i23  Li1+  0.898  0.710  0.051  0.001
  Li_i23  Li1+  0.298  0.510  0.851  0.001
  Li_i23  Li1+  0.698  0.110  0.451  0.001
  Li_i23  Li1+  0.498  0.910  0.851  0.001
  Li_i23  Li1+  0.298  0.510  0.251  0.001
  Li_i23  Li1+  0.698  0.510  0.451  0.001
  Li_i23  Li1+  0.098  0.310  0.451  0.001
  Li_i23  Li1+  0.498  0.110  0.851  0.001
  Li_i23  Li1+  0.298  0.910  0.251  0.001
  Li_i23  Li1+  0.898  0.910  0.051  0.001
  Li_i23  Li1+  0.298  0.310  0.451  0.001
  Li_i23  Li1+  0.498  0.510  0.251  0.001
  Li_i23  Li1+  0.498  0.710  0.251  0.001
  Li_i23  Li1+  0.098  0.310  0.651  0.001
  Li_i23  Li1+  0.898  0.510  0.251  0.001
  Li_i23  Li1+  0.498  0.110  0.451  0.001
  Li_i23  Li1+  0.298  0.910  0.651  0.001
  Li_i23  Li1+  0.698  0.710  0.251  0.001
  Li_i23  Li1+  0.098  0.710  0.851  0.001
  Li_i23  Li1+  0.498  0.110  0.051  0.001
  Li_i23  Li1+  0.098  0.110  0.851  0.001
  Li_i23  Li1+  0.898  0.310  0.451  0.001
  Li_i23  Li1+  0.698  0.310  0.851  0.001
  Li_i23  Li1+  0.098  0.310  0.051  0.001
  Li_i23  Li1+  0.498  0.310  0.851  0.001
  Li_i23  Li1+  0.698  0.910  0.051  0.001
  Li_i23  Li1+  0.898  0.710  0.251  0.001
  Li_i23  Li1+  0.098  0.110  0.451  0.001
  Li_i23  Li1+  0.898  0.110  0.651  0.001
  Li_i23  Li1+  0.698  0.910  0.851  0.001
  Li_i23  Li1+  0.498  0.710  0.851  0.001
  Li_i23  Li1+  0.098  0.510  0.051  0.001
  Li_i23  Li1+  0.298  0.710  0.251  0.001
  Li_i23  Li1+  0.298  0.310  0.251  0.001
  Li_i23  Li1+  0.698  0.310  0.251  0.001
  Li_i23  Li1+  0.298  0.510  0.051  0.001
  Li_i23  Li1+  0.098  0.710  0.051  0.001
  Li_i23  Li1+  0.498  0.910  0.451  0.001
  Li_i23  Li1+  0.698  0.510  0.651  0.001
  Li_i23  Li1+  0.898  0.910  0.251  0.001
  Li_i23  Li1+  0.498  0.510  0.851  0.001
  Li_i23  Li1+  0.098  0.710  0.451  0.001
  Li_i23  Li1+  0.898  0.510  0.451  0.001
  Li_i23  Li1+  0.698  0.110  0.651  0.001
  Li_i23  Li1+  0.698  0.110  0.051  0.001
  Li_i23  Li1+  0.098  0.310  0.251  0.001
  Li_i23  Li1+  0.298  0.510  0.651  0.001
  Li_i23  Li1+  0.498  0.310  0.451  0.001
  Li_i23  Li1+  0.098  0.910  0.051  0.001
  Li_i23  Li1+  0.898  0.310  0.651  0.001
  Li_i23  Li1+  0.298  0.710  0.651  0.001
  Li_i23  Li1+  0.698  0.710  0.451  0.001
  Li_i23  Li1+  0.898  0.710  0.451  0.001
  Li_i23  Li1+  0.098  0.110  0.651  0.001
  Li_i23  Li1+  0.298  0.310  0.051  0.001
  Li_i23  Li1+  0.098  0.110  0.251  0.001
  Li_i23  Li1+  0.098  0.110  0.051  0.001
  Li_i23  Li1+  0.698  0.910  0.251  0.001
  Li_i23  Li1+  0.698  0.510  0.051  0.001
  Li_i23  Li1+  0.898  0.110  0.851  0.001
  Li_i23  Li1+  0.098  0.910  0.251  0.001
  Li_i23  Li1+  0.898  0.110  0.051  0.001
  Li_i23  Li1+  0.498  0.710  0.451  0.001
  Li_i23  Li1+  0.498  0.510  0.451  0.001
  Li_i23  Li1+  0.498  0.310  0.051  0.001
  Li_i23  Li1+  0.898  0.910  0.451  0.001
  Li_i23  Li1+  0.298  0.910  0.051  0.001
  Li_i23  Li1+  0.098  0.510  0.251  0.001
  Li_i23  Li1+  0.298  0.310  0.851  0.001
  Li_i23  Li1+  0.898  0.510  0.651  0.001
  Li_i23  Li1+  0.098  0.510  0.851  0.001
  Li_i23  Li1+  0.498  0.910  0.051  0.001
  Li_i23  Li1+  0.698  0.310  0.451  0.001
  Li_i23  Li1+  0.698  0.510  0.851  0.001
  Li_i23  Li1+  0.498  0.110  0.651  0.001
  Li_i23  Li1+  0.298  0.910  0.451  0.001
  Li_i23  Li1+  0.298  0.910  0.851  0.001
  Li_i23  Li1+  0.498  0.110  0.251  0.001
  Li_i23  Li1+  0.498  0.910  0.651  0.001
  Li_i23  Li1+  0.898  0.710  0.651  0.001
  Li_i23  Li1+  0.898  0.310  0.851  0.001
  Li_i23  Li1+  0.698  0.110  0.851  0.001
  Li_i23  Li1+  0.498  0.510  0.051  0.001
  Li_i23  Li1+  0.298  0.110  0.851  0.001
  Li_i23  Li1+  0.698  0.710  0.651  0.001
  Li_i23  Li1+  0.698  0.110  0.251  0.001
  Li_i23  Li1+  0.298  0.710  0.051  0.001
  Li_i23  Li1+  0.098  0.910  0.451  0.001
  Li_i23  Li1+  0.898  0.310  0.051  0.001
  Li_i23  Li1+  0.698  0.910  0.451  0.001
  Li_i23  Li1+  0.498  0.710  0.051  0.001
  Li_i23  Li1+  0.898  0.910  0.651  0.001
  Li_i23  Li1+  0.298  0.510  0.451  0.001
  Li_i23  Li1+  0.898  0.110  0.251  0.001
  Li_i23  Li1+  0.098  0.510  0.651  0.001
  Li_i23  Li1+  0.698  0.510  0.251  0.001
  Li_i23  Li1+  0.298  0.110  0.651  0.001
  Li_i23  Li1+  0.898  0.510  0.851  0.001
  Li_i23  Li1+  0.098  0.910  0.651  0.001
  Li_i23  Li1+  0.098  0.710  0.651  0.001
  Li_i23  Li1+  0.498  0.310  0.651  0.001
  Li_i23  Li1+  0.098  0.510  0.451  0.001
  Li_i23  Li1+  0.298  0.310  0.651  0.001
  Li_i23  Li1+  0.298  0.710  0.451  0.001
  Li_i23  Li1+  0.298  0.110  0.451  0.001
  Li_i23  Li1+  0.498  0.710  0.651  0.001
  Li_i23  Li1+  0.898  0.710  0.851  0.001
  Li_i23  Li1+  0.098  0.910  0.851  0.001
  Li_i23  Li1+  0.698  0.710  0.051  0.001
  Li_i23  Li1+  0.698  0.310  0.651  0.001
  Li_i23  Li1+  0.898  0.510  0.051  0.001
  Li_i23  Li1+  0.498  0.510  0.651  0.001
  Li_i23  Li1+  0.298  0.110  0.251  0.001
  Li_i23  Li1+  0.298  0.110  0.051  0.001
  Li_i23  Li1+  0.498  0.910  0.251  0.001
  Li_i23  Li1+  0.098  0.710  0.251  0.001
  Li_i23  Li1+  0.698  0.710  0.851  0.001
  Li_i23  Li1+  0.898  0.910  0.851  0.001
  Li_i23  Li1+  0.898  0.310  0.251  0.001
  Li_i24  Li1+  0.102  0.875  0.515  0.001
  Li_i24  Li1+  0.302  0.675  0.915  0.001
  Li_i24  Li1+  0.702  0.475  0.715  0.001
  Li_i24  Li1+  0.102  0.275  0.515  0.001
  Li_i24  Li1+  0.102  0.075  0.315  0.001
  Li_i24  Li1+  0.702  0.875  0.915  0.001
  Li_i24  Li1+  0.902  0.475  0.315  0.001
  Li_i24  Li1+  0.302  0.475  0.115  0.001
  Li_i24  Li1+  0.502  0.875  0.115  0.001
  Li_i24  Li1+  0.902  0.275  0.515  0.001
  Li_i24  Li1+  0.302  0.275  0.115  0.001
  Li_i24  Li1+  0.902  0.875  0.115  0.001
  Li_i24  Li1+  0.902  0.075  0.715  0.001
  Li_i24  Li1+  0.502  0.275  0.715  0.001
  Li_i24  Li1+  0.102  0.875  0.715  0.001
  Li_i24  Li1+  0.502  0.675  0.115  0.001
  Li_i24  Li1+  0.302  0.875  0.315  0.001
  Li_i24  Li1+  0.102  0.275  0.915  0.001
  Li_i24  Li1+  0.702  0.475  0.115  0.001
  Li_i24  Li1+  0.102  0.275  0.715  0.001
  Li_i24  Li1+  0.502  0.875  0.715  0.001
  Li_i24  Li1+  0.702  0.675  0.515  0.001
  Li_i24  Li1+  0.302  0.675  0.315  0.001
  Li_i24  Li1+  0.102  0.675  0.915  0.001
  Li_i24  Li1+  0.902  0.675  0.315  0.001
  Li_i24  Li1+  0.502  0.275  0.315  0.001
  Li_i24  Li1+  0.302  0.875  0.715  0.001
  Li_i24  Li1+  0.702  0.275  0.515  0.001
  Li_i24  Li1+  0.302  0.075  0.915  0.001
  Li_i24  Li1+  0.702  0.075  0.315  0.001
  Li_i24  Li1+  0.702  0.075  0.915  0.001
  Li_i24  Li1+  0.702  0.875  0.315  0.001
  Li_i24  Li1+  0.302  0.475  0.715  0.001
  Li_i24  Li1+  0.502  0.475  0.715  0.001
  Li_i24  Li1+  0.502  0.075  0.915  0.001
  Li_i24  Li1+  0.902  0.475  0.515  0.001
  Li_i24  Li1+  0.102  0.875  0.915  0.001
  Li_i24  Li1+  0.702  0.475  0.915  0.001
  Li_i24  Li1+  0.902  0.275  0.715  0.001
  Li_i24  Li1+  0.502  0.075  0.515  0.001
  Li_i24  Li1+  0.902  0.075  0.115  0.001
  Li_i24  Li1+  0.502  0.675  0.715  0.001
  Li_i24  Li1+  0.902  0.875  0.315  0.001
  Li_i24  Li1+  0.502  0.075  0.115  0.001
  Li_i24  Li1+  0.902  0.075  0.915  0.001
  Li_i24  Li1+  0.302  0.075  0.715  0.001
  Li_i24  Li1+  0.102  0.675  0.115  0.001
  Li_i24  Li1+  0.302  0.275  0.915  0.001
  Li_i24  Li1+  0.302  0.075  0.115  0.001
  Li_i24  Li1+  0.302  0.075  0.515  0.001
  Li_i24  Li1+  0.302  0.675  0.715  0.001
  Li_i24  Li1+  0.902  0.675  0.515  0.001
  Li_i24  Li1+  0.502  0.875  0.315  0.001
  Li_i24  Li1+  0.502  0.475  0.315  0.001
  Li_i24  Li1+  0.702  0.475  0.315  0.001
  Li_i24  Li1+  0.702  0.675  0.715  0.001
  Li_i24  Li1+  0.302  0.075  0.315  0.001
  Li_i24  Li1+  0.102  0.475  0.315  0.001
  Li_i24  Li1+  0.102  0.075  0.515  0.001
  Li_i24  Li1+  0.102  0.675  0.515  0.001
  Li_i24  Li1+  0.302  0.475  0.515  0.001
  Li_i24  Li1+  0.502  0.675  0.315  0.001
  Li_i24  Li1+  0.502  0.275  0.915  0.001
  Li_i24  Li1+  0.902  0.475  0.715  0.001
  Li_i24  Li1+  0.702  0.875  0.515  0.001
  Li_i24  Li1+  0.702  0.275  0.715  0.001
  Li_i24  Li1+  0.502  0.875  0.915  0.001
  Li_i24  Li1+  0.102  0.475  0.515  0.001
  Li_i24  Li1+  0.302  0.675  0.115  0.001
  Li_i24  Li1+  0.902  0.875  0.515  0.001
  Li_i24  Li1+  0.902  0.275  0.915  0.001
  Li_i24  Li1+  0.702  0.075  0.515  0.001
  Li_i24  Li1+  0.702  0.275  0.115  0.001
  Li_i24  Li1+  0.902  0.075  0.315  0.001
  Li_i24  Li1+  0.902  0.275  0.115  0.001
  Li_i24  Li1+  0.302  0.875  0.115  0.001
  Li_i24  Li1+  0.702  0.675  0.115  0.001
  Li_i24  Li1+  0.302  0.275  0.715  0.001
  Li_i24  Li1+  0.102  0.475  0.715  0.001
  Li_i24  Li1+  0.902  0.675  0.715  0.001
  Li_i24  Li1+  0.102  0.475  0.915  0.001
  Li_i24  Li1+  0.102  0.275  0.315  0.001
  Li_i24  Li1+  0.502  0.275  0.515  0.001
  Li_i24  Li1+  0.102  0.875  0.115  0.001
  Li_i24  Li1+  0.302  0.875  0.515  0.001
  Li_i24  Li1+  0.102  0.075  0.115  0.001
  Li_i24  Li1+  0.502  0.675  0.915  0.001
  Li_i24  Li1+  0.502  0.475  0.915  0.001
  Li_i24  Li1+  0.702  0.675  0.915  0.001
  Li_i24  Li1+  0.102  0.075  0.915  0.001
  Li_i24  Li1+  0.702  0.475  0.515  0.001
  Li_i24  Li1+  0.302  0.875  0.915  0.001
  Li_i24  Li1+  0.902  0.475  0.915  0.001
  Li_i24  Li1+  0.502  0.275  0.115  0.001
  Li_i24  Li1+  0.302  0.275  0.515  0.001
  Li_i24  Li1+  0.102  0.075  0.715  0.001
  Li_i24  Li1+  0.902  0.875  0.715  0.001
  Li_i24  Li1+  0.702  0.875  0.715  0.001
  Li_i24  Li1+  0.502  0.075  0.715  0.001
  Li_i24  Li1+  0.502  0.075  0.315  0.001
  Li_i24  Li1+  0.502  0.875  0.515  0.001
  Li_i24  Li1+  0.902  0.475  0.115  0.001
  Li_i24  Li1+  0.102  0.675  0.315  0.001
  Li_i24  Li1+  0.302  0.675  0.515  0.001
  Li_i24  Li1+  0.902  0.275  0.315  0.001
  Li_i24  Li1+  0.902  0.075  0.515  0.001
  Li_i24  Li1+  0.702  0.275  0.915  0.001
  Li_i24  Li1+  0.902  0.675  0.915  0.001
  Li_i24  Li1+  0.502  0.475  0.515  0.001
  Li_i24  Li1+  0.302  0.475  0.315  0.001
  Li_i24  Li1+  0.102  0.875  0.315  0.001
  Li_i24  Li1+  0.702  0.675  0.315  0.001
  Li_i24  Li1+  0.702  0.075  0.115  0.001
  Li_i24  Li1+  0.702  0.275  0.315  0.001
  Li_i24  Li1+  0.102  0.675  0.715  0.001
  Li_i24  Li1+  0.302  0.475  0.915  0.001
  Li_i24  Li1+  0.702  0.075  0.715  0.001
  Li_i24  Li1+  0.502  0.675  0.515  0.001
  Li_i24  Li1+  0.102  0.475  0.115  0.001
  Li_i24  Li1+  0.302  0.275  0.315  0.001
  Li_i24  Li1+  0.102  0.275  0.115  0.001
  Li_i24  Li1+  0.902  0.675  0.115  0.001
  Li_i24  Li1+  0.502  0.475  0.115  0.001
  Li_i24  Li1+  0.902  0.875  0.915  0.001
  Li_i24  Li1+  0.702  0.875  0.115  0.001
  Li_i25  Li1+  0.329  0.746  0.907  0.001
  Li_i25  Li1+  0.729  0.946  0.307  0.001
  Li_i25  Li1+  0.129  0.546  0.307  0.001
  Li_i25  Li1+  0.529  0.946  0.907  0.001
  Li_i25  Li1+  0.129  0.746  0.707  0.001
  Li_i25  Li1+  0.529  0.546  0.907  0.001
  Li_i25  Li1+  0.329  0.346  0.907  0.001
  Li_i25  Li1+  0.929  0.946  0.107  0.001
  Li_i25  Li1+  0.329  0.546  0.707  0.001
  Li_i25  Li1+  0.729  0.546  0.307  0.001
  Li_i25  Li1+  0.329  0.746  0.307  0.001
  Li_i25  Li1+  0.729  0.146  0.507  0.001
  Li_i25  Li1+  0.129  0.146  0.107  0.001
  Li_i25  Li1+  0.929  0.146  0.107  0.001
  Li_i25  Li1+  0.529  0.746  0.907  0.001
  Li_i25  Li1+  0.729  0.346  0.707  0.001
  Li_i25  Li1+  0.929  0.746  0.307  0.001
  Li_i25  Li1+  0.129  0.146  0.707  0.001
  Li_i25  Li1+  0.729  0.346  0.107  0.001
  Li_i25  Li1+  0.729  0.746  0.707  0.001
  Li_i25  Li1+  0.329  0.946  0.307  0.001
  Li_i25  Li1+  0.929  0.346  0.707  0.001
  Li_i25  Li1+  0.929  0.146  0.907  0.001
  Li_i25  Li1+  0.929  0.546  0.507  0.001
  Li_i25  Li1+  0.129  0.946  0.307  0.001
  Li_i25  Li1+  0.529  0.546  0.507  0.001
  Li_i25  Li1+  0.129  0.546  0.507  0.001
  Li_i25  Li1+  0.129  0.746  0.107  0.001
  Li_i25  Li1+  0.129  0.346  0.507  0.001
  Li_i25  Li1+  0.329  0.346  0.707  0.001
  Li_i25  Li1+  0.129  0.546  0.707  0.001
  Li_i25  Li1+  0.529  0.546  0.107  0.001
  Li_i25  Li1+  0.329  0.946  0.707  0.001
  Li_i25  Li1+  0.529  0.946  0.507  0.001
  Li_i25  Li1+  0.729  0.946  0.507  0.001
  Li_i25  Li1+  0.729  0.746  0.107  0.001
  Li_i25  Li1+  0.129  0.946  0.507  0.001
  Li_i25  Li1+  0.329  0.546  0.507  0.001
  Li_i25  Li1+  0.529  0.746  0.507  0.001
  Li_i25  Li1+  0.929  0.946  0.307  0.001
  Li_i25  Li1+  0.129  0.146  0.907  0.001
  Li_i25  Li1+  0.529  0.346  0.707  0.001
  Li_i25  Li1+  0.329  0.746  0.707  0.001
  Li_i25  Li1+  0.129  0.546  0.907  0.001
  Li_i25  Li1+  0.929  0.746  0.507  0.001
  Li_i25  Li1+  0.529  0.146  0.107  0.001
  Li_i25  Li1+  0.729  0.546  0.507  0.001
  Li_i25  Li1+  0.929  0.146  0.307  0.001
  Li_i25  Li1+  0.729  0.146  0.107  0.001
  Li_i25  Li1+  0.129  0.746  0.907  0.001
  Li_i25  Li1+  0.529  0.346  0.307  0.001
  Li_i25  Li1+  0.529  0.146  0.507  0.001
  Li_i25  Li1+  0.929  0.546  0.707  0.001
  Li_i25  Li1+  0.929  0.346  0.107  0.001
  Li_i25  Li1+  0.529  0.146  0.907  0.001
  Li_i25  Li1+  0.929  0.346  0.907  0.001
  Li_i25  Li1+  0.729  0.746  0.907  0.001
  Li_i25  Li1+  0.329  0.346  0.507  0.001
  Li_i25  Li1+  0.729  0.346  0.907  0.001
  Li_i25  Li1+  0.729  0.146  0.707  0.001
  Li_i25  Li1+  0.729  0.346  0.307  0.001
  Li_i25  Li1+  0.529  0.746  0.107  0.001
  Li_i25  Li1+  0.329  0.746  0.107  0.001
  Li_i25  Li1+  0.529  0.946  0.107  0.001
  Li_i25  Li1+  0.129  0.946  0.707  0.001
  Li_i25  Li1+  0.129  0.746  0.507  0.001
  Li_i25  Li1+  0.129  0.546  0.107  0.001
  Li_i25  Li1+  0.929  0.946  0.507  0.001
  Li_i25  Li1+  0.729  0.946  0.707  0.001
  Li_i25  Li1+  0.129  0.346  0.307  0.001
  Li_i25  Li1+  0.329  0.346  0.307  0.001
  Li_i25  Li1+  0.729  0.746  0.307  0.001
  Li_i25  Li1+  0.329  0.946  0.107  0.001
  Li_i25  Li1+  0.929  0.746  0.707  0.001
  Li_i25  Li1+  0.529  0.546  0.707  0.001
  Li_i25  Li1+  0.129  0.346  0.707  0.001
  Li_i25  Li1+  0.329  0.546  0.307  0.001
  Li_i25  Li1+  0.129  0.946  0.907  0.001
  Li_i25  Li1+  0.529  0.946  0.707  0.001
  Li_i25  Li1+  0.929  0.146  0.507  0.001
  Li_i25  Li1+  0.129  0.346  0.907  0.001
  Li_i25  Li1+  0.129  0.146  0.507  0.001
  Li_i25  Li1+  0.929  0.546  0.907  0.001
  Li_i25  Li1+  0.329  0.346  0.107  0.001
  Li_i25  Li1+  0.929  0.346  0.307  0.001
  Li_i25  Li1+  0.729  0.546  0.707  0.001
  Li_i25  Li1+  0.929  0.546  0.107  0.001
  Li_i25  Li1+  0.329  0.146  0.107  0.001
  Li_i25  Li1+  0.329  0.946  0.507  0.001
  Li_i25  Li1+  0.529  0.746  0.707  0.001
  Li_i25  Li1+  0.529  0.546  0.307  0.001
  Li_i25  Li1+  0.729  0.946  0.107  0.001
  Li_i25  Li1+  0.329  0.746  0.507  0.001
  Li_i25  Li1+  0.729  0.146  0.307  0.001
  Li_i25  Li1+  0.329  0.546  0.907  0.001
  Li_i25  Li1+  0.929  0.946  0.707  0.001
  Li_i25  Li1+  0.729  0.546  0.107  0.001
  Li_i25  Li1+  0.129  0.146  0.307  0.001
  Li_i25  Li1+  0.529  0.346  0.907  0.001
  Li_i25  Li1+  0.729  0.146  0.907  0.001
  Li_i25  Li1+  0.729  0.346  0.507  0.001
  Li_i25  Li1+  0.329  0.146  0.907  0.001
  Li_i25  Li1+  0.929  0.746  0.907  0.001
  Li_i25  Li1+  0.729  0.946  0.907  0.001
  Li_i25  Li1+  0.329  0.946  0.907  0.001
  Li_i25  Li1+  0.329  0.546  0.107  0.001
  Li_i25  Li1+  0.329  0.146  0.707  0.001
  Li_i25  Li1+  0.329  0.146  0.307  0.001
  Li_i25  Li1+  0.729  0.746  0.507  0.001
  Li_i25  Li1+  0.529  0.946  0.307  0.001
  Li_i25  Li1+  0.529  0.346  0.507  0.001
  Li_i25  Li1+  0.929  0.146  0.707  0.001
  Li_i25  Li1+  0.929  0.746  0.107  0.001
  Li_i25  Li1+  0.529  0.746  0.307  0.001
  Li_i25  Li1+  0.329  0.146  0.507  0.001
  Li_i25  Li1+  0.929  0.346  0.507  0.001
  Li_i25  Li1+  0.529  0.146  0.307  0.001
  Li_i25  Li1+  0.929  0.546  0.307  0.001
  Li_i25  Li1+  0.129  0.746  0.307  0.001
  Li_i25  Li1+  0.529  0.346  0.107  0.001
  Li_i25  Li1+  0.529  0.146  0.707  0.001
  Li_i25  Li1+  0.129  0.946  0.107  0.001
  Li_i25  Li1+  0.729  0.546  0.907  0.001
  Li_i25  Li1+  0.929  0.946  0.907  0.001
  Li_i25  Li1+  0.129  0.346  0.107  0.001
  Li_i26  Li1+  0.550  0.062  0.088  0.001
  Li_i26  Li1+  0.750  0.062  0.287  0.001
  Li_i26  Li1+  0.750  0.663  0.887  0.001
  Li_i26  Li1+  0.950  0.663  0.287  0.001
  Li_i26  Li1+  0.550  0.863  0.287  0.001
  Li_i26  Li1+  0.946  0.673  0.351  0.001
  Li_i26  Li1+  0.746  0.673  0.951  0.001
  Li_i26  Li1+  0.746  0.073  0.351  0.001
  Li_i26  Li1+  0.150  0.663  0.088  0.001
  Li_i26  Li1+  0.546  0.873  0.351  0.001
  Li_i26  Li1+  0.950  0.062  0.287  0.001
  Li_i26  Li1+  0.546  0.073  0.151  0.001
  Li_i26  Li1+  0.946  0.073  0.351  0.001
  Li_i26  Li1+  0.146  0.873  0.751  0.001
  Li_i26  Li1+  0.146  0.473  0.751  0.001
  Li_i26  Li1+  0.150  0.863  0.088  0.001
  Li_i26  Li1+  0.146  0.673  0.151  0.001
  Li_i26  Li1+  0.550  0.463  0.487  0.001
  Li_i26  Li1+  0.146  0.873  0.151  0.001
  Li_i26  Li1+  0.546  0.473  0.551  0.001
  Li_i26  Li1+  0.750  0.463  0.688  0.001
  Li_i26  Li1+  0.150  0.463  0.887  0.001
  Li_i26  Li1+  0.746  0.473  0.751  0.001
  Li_i26  Li1+  0.750  0.263  0.487  0.001
  Li_i26  Li1+  0.550  0.062  0.887  0.001
  Li_i26  Li1+  0.746  0.273  0.551  0.001
  Li_i26  Li1+  0.550  0.263  0.688  0.001
  Li_i26  Li1+  0.150  0.263  0.088  0.001
  Li_i26  Li1+  0.546  0.273  0.751  0.001
  Li_i26  Li1+  0.950  0.263  0.887  0.001
  Li_i26  Li1+  0.546  0.073  0.951  0.001
  Li_i26  Li1+  0.946  0.273  0.951  0.001
  Li_i26  Li1+  0.950  0.663  0.487  0.001
  Li_i26  Li1+  0.350  0.263  0.688  0.001
  Li_i26  Li1+  0.946  0.673  0.551  0.001
  Li_i26  Li1+  0.146  0.473  0.951  0.001
  Li_i26  Li1+  0.350  0.463  0.688  0.001
  Li_i26  Li1+  0.350  0.863  0.487  0.001
  Li_i26  Li1+  0.346  0.273  0.751  0.001
  Li_i26  Li1+  0.346  0.873  0.551  0.001
  Li_i26  Li1+  0.750  0.863  0.088  0.001
  Li_i26  Li1+  0.346  0.473  0.751  0.001
  Li_i26  Li1+  0.746  0.873  0.151  0.001
  Li_i26  Li1+  0.950  0.063  0.487  0.001
  Li_i26  Li1+  0.350  0.062  0.088  0.001
  Li_i26  Li1+  0.946  0.073  0.551  0.001
  Li_i26  Li1+  0.150  0.062  0.887  0.001
  Li_i26  Li1+  0.550  0.663  0.487  0.001
  Li_i26  Li1+  0.750  0.063  0.487  0.001
  Li_i26  Li1+  0.346  0.073  0.151  0.001
  Li_i26  Li1+  0.746  0.073  0.551  0.001
  Li_i26  Li1+  0.350  0.663  0.287  0.001
  Li_i26  Li1+  0.546  0.673  0.551  0.001
  Li_i26  Li1+  0.350  0.663  0.887  0.001
  Li_i26  Li1+  0.146  0.273  0.151  0.001
  Li_i26  Li1+  0.550  0.863  0.487  0.001
  Li_i26  Li1+  0.346  0.673  0.951  0.001
  Li_i26  Li1+  0.750  0.463  0.887  0.001
  Li_i26  Li1+  0.546  0.873  0.551  0.001
  Li_i26  Li1+  0.346  0.673  0.351  0.001
  Li_i26  Li1+  0.746  0.473  0.951  0.001
  Li_i26  Li1+  0.950  0.463  0.088  0.001
  Li_i26  Li1+  0.950  0.663  0.688  0.001
  Li_i26  Li1+  0.146  0.073  0.351  0.001
  Li_i26  Li1+  0.946  0.673  0.751  0.001
  Li_i26  Li1+  0.946  0.473  0.151  0.001
  Li_i26  Li1+  0.750  0.263  0.688  0.001
  Li_i26  Li1+  0.350  0.263  0.287  0.001
  Li_i26  Li1+  0.150  0.263  0.688  0.001
  Li_i26  Li1+  0.746  0.273  0.751  0.001
  Li_i26  Li1+  0.346  0.273  0.351  0.001
  Li_i26  Li1+  0.550  0.062  0.287  0.001
  Li_i26  Li1+  0.550  0.463  0.688  0.001
  Li_i26  Li1+  0.350  0.063  0.487  0.001
  Li_i26  Li1+  0.546  0.473  0.751  0.001
  Li_i26  Li1+  0.750  0.863  0.287  0.001
  Li_i26  Li1+  0.950  0.062  0.688  0.001
  Li_i26  Li1+  0.546  0.073  0.351  0.001
  Li_i26  Li1+  0.946  0.073  0.751  0.001
  Li_i26  Li1+  0.746  0.873  0.351  0.001
  Li_i26  Li1+  0.146  0.073  0.951  0.001
  Li_i26  Li1+  0.350  0.062  0.887  0.001
  Li_i26  Li1+  0.346  0.073  0.551  0.001
  Li_i26  Li1+  0.550  0.263  0.887  0.001
  Li_i26  Li1+  0.346  0.073  0.951  0.001
  Li_i26  Li1+  0.150  0.663  0.887  0.001
  Li_i26  Li1+  0.546  0.273  0.951  0.001
  Li_i26  Li1+  0.550  0.263  0.088  0.001
  Li_i26  Li1+  0.150  0.463  0.088  0.001
  Li_i26  Li1+  0.546  0.273  0.151  0.001
  Li_i26  Li1+  0.350  0.463  0.287  0.001
  Li_i26  Li1+  0.750  0.062  0.688  0.001
  Li_i26  Li1+  0.950  0.663  0.887  0.001
  Li_i26  Li1+  0.146  0.673  0.951  0.001
  Li_i26  Li1+  0.946  0.673  0.951  0.001
  Li_i26  Li1+  0.950  0.463  0.287  0.001
  Li_i26  Li1+  0.746  0.073  0.751  0.001
  Li_i26  Li1+  0.346  0.473  0.351  0.001
  Li_i26  Li1+  0.946  0.473  0.351  0.001
  Li_i26  Li1+  0.750  0.663  0.088  0.001
  Li_i26  Li1+  0.550  0.663  0.688  0.001
  Li_i26  Li1+  0.746  0.673  0.151  0.001
  Li_i26  Li1+  0.150  0.863  0.487  0.001
  Li_i26  Li1+  0.546  0.673  0.751  0.001
  Li_i26  Li1+  0.550  0.863  0.688  0.001
  Li_i26  Li1+  0.146  0.273  0.751  0.001
  Li_i26  Li1+  0.750  0.263  0.887  0.001
  Li_i26  Li1+  0.146  0.873  0.551  0.001
  Li_i26  Li1+  0.746  0.273  0.951  0.001
  Li_i26  Li1+  0.546  0.873  0.751  0.001
  Li_i26  Li1+  0.750  0.863  0.487  0.001
  Li_i26  Li1+  0.950  0.062  0.887  0.001
  Li_i26  Li1+  0.350  0.863  0.688  0.001
  Li_i26  Li1+  0.946  0.073  0.951  0.001
  Li_i26  Li1+  0.746  0.873  0.551  0.001
  Li_i26  Li1+  0.146  0.473  0.151  0.001
  Li_i26  Li1+  0.346  0.873  0.751  0.001
  Li_i26  Li1+  0.150  0.062  0.688  0.001
  Li_i26  Li1+  0.150  0.263  0.287  0.001
  Li_i26  Li1+  0.150  0.263  0.487  0.001
  Li_i26  Li1+  0.146  0.073  0.151  0.001
  Li_i26  Li1+  0.350  0.463  0.887  0.001
  Li_i26  Li1+  0.146  0.273  0.551  0.001
  Li_i26  Li1+  0.950  0.863  0.088  0.001
  Li_i26  Li1+  0.346  0.473  0.951  0.001
  Li_i26  Li1+  0.350  0.863  0.088  0.001
  Li_i26  Li1+  0.950  0.463  0.487  0.001
  Li_i26  Li1+  0.946  0.873  0.151  0.001
  Li_i26  Li1+  0.150  0.663  0.688  0.001
  Li_i26  Li1+  0.946  0.473  0.551  0.001
  Li_i26  Li1+  0.550  0.463  0.887  0.001
  Li_i26  Li1+  0.346  0.873  0.151  0.001
  Li_i26  Li1+  0.546  0.473  0.951  0.001
  Li_i26  Li1+  0.146  0.273  0.351  0.001
  Li_i26  Li1+  0.550  0.063  0.487  0.001
  Li_i26  Li1+  0.350  0.663  0.487  0.001
  Li_i26  Li1+  0.750  0.663  0.287  0.001
  Li_i26  Li1+  0.750  0.062  0.887  0.001
  Li_i26  Li1+  0.746  0.673  0.351  0.001
  Li_i26  Li1+  0.546  0.073  0.551  0.001
  Li_i26  Li1+  0.350  0.263  0.887  0.001
  Li_i26  Li1+  0.746  0.073  0.951  0.001
  Li_i26  Li1+  0.550  0.463  0.088  0.001
  Li_i26  Li1+  0.346  0.673  0.551  0.001
  Li_i26  Li1+  0.950  0.263  0.088  0.001
  Li_i26  Li1+  0.546  0.473  0.151  0.001
  Li_i26  Li1+  0.946  0.273  0.151  0.001
  Li_i26  Li1+  0.750  0.863  0.688  0.001
  Li_i26  Li1+  0.750  0.463  0.088  0.001
  Li_i26  Li1+  0.746  0.873  0.751  0.001
  Li_i26  Li1+  0.146  0.673  0.751  0.001
  Li_i26  Li1+  0.746  0.473  0.151  0.001
  Li_i26  Li1+  0.550  0.263  0.287  0.001
  Li_i26  Li1+  0.550  0.663  0.887  0.001
  Li_i26  Li1+  0.346  0.273  0.951  0.001
  Li_i26  Li1+  0.550  0.863  0.887  0.001
  Li_i26  Li1+  0.950  0.463  0.688  0.001
  Li_i26  Li1+  0.950  0.863  0.287  0.001
  Li_i26  Li1+  0.546  0.673  0.951  0.001
  Li_i26  Li1+  0.946  0.473  0.751  0.001
  Li_i26  Li1+  0.946  0.873  0.351  0.001
  Li_i26  Li1+  0.546  0.273  0.351  0.001
  Li_i26  Li1+  0.546  0.873  0.951  0.001
  Li_i26  Li1+  0.150  0.863  0.887  0.001
  Li_i26  Li1+  0.150  0.463  0.287  0.001
  Li_i26  Li1+  0.146  0.873  0.951  0.001
  Li_i26  Li1+  0.150  0.063  0.487  0.001
  Li_i26  Li1+  0.146  0.473  0.351  0.001
  Li_i26  Li1+  0.146  0.073  0.751  0.001
  Li_i26  Li1+  0.150  0.062  0.287  0.001
  Li_i26  Li1+  0.350  0.263  0.487  0.001
  Li_i26  Li1+  0.150  0.863  0.287  0.001
  Li_i26  Li1+  0.346  0.273  0.551  0.001
  Li_i26  Li1+  0.350  0.863  0.887  0.001
  Li_i26  Li1+  0.750  0.663  0.487  0.001
  Li_i26  Li1+  0.350  0.062  0.287  0.001
  Li_i26  Li1+  0.746  0.673  0.551  0.001
  Li_i26  Li1+  0.950  0.263  0.287  0.001
  Li_i26  Li1+  0.346  0.873  0.951  0.001
  Li_i26  Li1+  0.946  0.273  0.351  0.001
  Li_i26  Li1+  0.150  0.663  0.487  0.001
  Li_i26  Li1+  0.350  0.463  0.487  0.001
  Li_i26  Li1+  0.750  0.263  0.088  0.001
  Li_i26  Li1+  0.750  0.863  0.887  0.001
  Li_i26  Li1+  0.550  0.663  0.088  0.001
  Li_i26  Li1+  0.746  0.873  0.951  0.001
  Li_i26  Li1+  0.746  0.273  0.151  0.001
  Li_i26  Li1+  0.950  0.863  0.487  0.001
  Li_i26  Li1+  0.146  0.873  0.351  0.001
  Li_i26  Li1+  0.950  0.463  0.887  0.001
  Li_i26  Li1+  0.946  0.873  0.551  0.001
  Li_i26  Li1+  0.750  0.463  0.287  0.001
  Li_i26  Li1+  0.346  0.473  0.551  0.001
  Li_i26  Li1+  0.946  0.473  0.951  0.001
  Li_i26  Li1+  0.746  0.473  0.351  0.001
  Li_i26  Li1+  0.546  0.673  0.151  0.001
  Li_i26  Li1+  0.350  0.062  0.688  0.001
  Li_i26  Li1+  0.350  0.263  0.088  0.001
  Li_i26  Li1+  0.346  0.073  0.351  0.001
  Li_i26  Li1+  0.346  0.273  0.151  0.001
  Li_i26  Li1+  0.346  0.073  0.751  0.001
  Li_i26  Li1+  0.350  0.863  0.287  0.001
  Li_i26  Li1+  0.550  0.863  0.088  0.001
  Li_i26  Li1+  0.750  0.062  0.088  0.001
  Li_i26  Li1+  0.550  0.062  0.688  0.001
  Li_i26  Li1+  0.746  0.073  0.151  0.001
  Li_i26  Li1+  0.546  0.873  0.151  0.001
  Li_i26  Li1+  0.550  0.463  0.287  0.001
  Li_i26  Li1+  0.150  0.463  0.487  0.001
  Li_i26  Li1+  0.546  0.473  0.351  0.001
  Li_i26  Li1+  0.950  0.263  0.487  0.001
  Li_i26  Li1+  0.546  0.073  0.751  0.001
  Li_i26  Li1+  0.946  0.273  0.551  0.001
  Li_i26  Li1+  0.750  0.663  0.688  0.001
  Li_i26  Li1+  0.550  0.263  0.487  0.001
  Li_i26  Li1+  0.746  0.673  0.751  0.001
  Li_i26  Li1+  0.346  0.873  0.351  0.001
  Li_i26  Li1+  0.950  0.863  0.688  0.001
  Li_i26  Li1+  0.546  0.273  0.551  0.001
  Li_i26  Li1+  0.946  0.873  0.751  0.001
  Li_i26  Li1+  0.146  0.673  0.551  0.001
  Li_i26  Li1+  0.350  0.663  0.088  0.001
  Li_i26  Li1+  0.950  0.663  0.088  0.001
  Li_i26  Li1+  0.950  0.062  0.088  0.001
  Li_i26  Li1+  0.946  0.673  0.151  0.001
  Li_i26  Li1+  0.150  0.263  0.887  0.001
  Li_i26  Li1+  0.946  0.073  0.151  0.001
  Li_i26  Li1+  0.350  0.663  0.688  0.001
  Li_i26  Li1+  0.346  0.673  0.151  0.001
  Li_i26  Li1+  0.750  0.263  0.287  0.001
  Li_i26  Li1+  0.346  0.673  0.751  0.001
  Li_i26  Li1+  0.750  0.463  0.487  0.001
  Li_i26  Li1+  0.146  0.073  0.551  0.001
  Li_i26  Li1+  0.746  0.473  0.551  0.001
  Li_i26  Li1+  0.746  0.273  0.351  0.001
  Li_i26  Li1+  0.146  0.473  0.551  0.001
  Li_i26  Li1+  0.150  0.663  0.287  0.001
  Li_i26  Li1+  0.150  0.463  0.688  0.001
  Li_i26  Li1+  0.146  0.673  0.351  0.001
  Li_i26  Li1+  0.350  0.463  0.088  0.001
  Li_i26  Li1+  0.550  0.663  0.287  0.001
  Li_i26  Li1+  0.150  0.062  0.088  0.001
  Li_i26  Li1+  0.150  0.863  0.688  0.001
  Li_i26  Li1+  0.950  0.263  0.688  0.001
  Li_i26  Li1+  0.546  0.673  0.351  0.001
  Li_i26  Li1+  0.946  0.273  0.751  0.001
  Li_i26  Li1+  0.346  0.473  0.151  0.001
  Li_i26  Li1+  0.950  0.863  0.887  0.001
  Li_i26  Li1+  0.146  0.273  0.951  0.001
  Li_i26  Li1+  0.946  0.873  0.951  0.001
  Li_i27  Li1+  0.146  0.444  0.914  0.001
  Li_i27  Li1+  0.146  0.444  0.114  0.001
  Li_i27  Li1+  0.546  0.644  0.314  0.001
  Li_i27  Li1+  0.546  0.244  0.314  0.001
  Li_i27  Li1+  0.346  0.444  0.114  0.001
  Li_i27  Li1+  0.546  0.244  0.714  0.001
  Li_i27  Li1+  0.946  0.244  0.914  0.001
  Li_i27  Li1+  0.946  0.044  0.514  0.001
  Li_i27  Li1+  0.546  0.844  0.714  0.001
  Li_i27  Li1+  0.346  0.844  0.914  0.001
  Li_i27  Li1+  0.746  0.044  0.714  0.001
  Li_i27  Li1+  0.546  0.444  0.914  0.001
  Li_i27  Li1+  0.546  0.444  0.114  0.001
  Li_i27  Li1+  0.546  0.444  0.514  0.001
  Li_i27  Li1+  0.346  0.644  0.114  0.001
  Li_i27  Li1+  0.146  0.044  0.514  0.001
  Li_i27  Li1+  0.946  0.444  0.714  0.001
  Li_i27  Li1+  0.146  0.044  0.114  0.001
  Li_i27  Li1+  0.746  0.844  0.914  0.001
  Li_i27  Li1+  0.346  0.044  0.314  0.001
  Li_i27  Li1+  0.146  0.844  0.514  0.001
  Li_i27  Li1+  0.946  0.644  0.514  0.001
  Li_i27  Li1+  0.146  0.044  0.314  0.001
  Li_i27  Li1+  0.746  0.244  0.314  0.001
  Li_i27  Li1+  0.546  0.844  0.314  0.001
  Li_i27  Li1+  0.946  0.244  0.314  0.001
  Li_i27  Li1+  0.346  0.844  0.314  0.001
  Li_i27  Li1+  0.346  0.644  0.714  0.001
  Li_i27  Li1+  0.346  0.244  0.914  0.001
  Li_i27  Li1+  0.946  0.844  0.314  0.001
  Li_i27  Li1+  0.746  0.844  0.314  0.001
  Li_i27  Li1+  0.146  0.644  0.714  0.001
  Li_i27  Li1+  0.546  0.044  0.314  0.001
  Li_i27  Li1+  0.346  0.044  0.514  0.001
  Li_i27  Li1+  0.746  0.244  0.914  0.001
  Li_i27  Li1+  0.746  0.044  0.314  0.001
  Li_i27  Li1+  0.746  0.644  0.714  0.001
  Li_i27  Li1+  0.146  0.444  0.514  0.001
  Li_i27  Li1+  0.746  0.444  0.514  0.001
  Li_i27  Li1+  0.746  0.644  0.114  0.001
  Li_i27  Li1+  0.946  0.444  0.114  0.001
  Li_i27  Li1+  0.346  0.444  0.914  0.001
  Li_i27  Li1+  0.946  0.044  0.714  0.001
  Li_i27  Li1+  0.346  0.244  0.714  0.001
  Li_i27  Li1+  0.346  0.044  0.714  0.001
  Li_i27  Li1+  0.146  0.044  0.914  0.001
  Li_i27  Li1+  0.546  0.644  0.914  0.001
  Li_i27  Li1+  0.346  0.244  0.514  0.001
  Li_i27  Li1+  0.546  0.044  0.714  0.001
  Li_i27  Li1+  0.946  0.444  0.914  0.001
  Li_i27  Li1+  0.146  0.244  0.114  0.001
  Li_i27  Li1+  0.346  0.244  0.314  0.001
  Li_i27  Li1+  0.346  0.844  0.714  0.001
  Li_i27  Li1+  0.946  0.644  0.714  0.001
  Li_i27  Li1+  0.346  0.044  0.914  0.001
  Li_i27  Li1+  0.746  0.044  0.914  0.001
  Li_i27  Li1+  0.346  0.244  0.114  0.001
  Li_i27  Li1+  0.946  0.044  0.114  0.001
  Li_i27  Li1+  0.546  0.644  0.514  0.001
  Li_i27  Li1+  0.946  0.244  0.514  0.001
  Li_i27  Li1+  0.946  0.844  0.514  0.001
  Li_i27  Li1+  0.546  0.844  0.914  0.001
  Li_i27  Li1+  0.546  0.244  0.114  0.001
  Li_i27  Li1+  0.346  0.644  0.514  0.001
  Li_i27  Li1+  0.146  0.844  0.114  0.001
  Li_i27  Li1+  0.546  0.244  0.514  0.001
  Li_i27  Li1+  0.546  0.644  0.114  0.001
  Li_i27  Li1+  0.746  0.844  0.514  0.001
  Li_i27  Li1+  0.546  0.244  0.914  0.001
  Li_i27  Li1+  0.746  0.244  0.514  0.001
  Li_i27  Li1+  0.546  0.444  0.714  0.001
  Li_i27  Li1+  0.346  0.844  0.114  0.001
  Li_i27  Li1+  0.346  0.444  0.714  0.001
  Li_i27  Li1+  0.546  0.444  0.314  0.001
  Li_i27  Li1+  0.946  0.444  0.314  0.001
  Li_i27  Li1+  0.746  0.644  0.914  0.001
  Li_i27  Li1+  0.146  0.844  0.714  0.001
  Li_i27  Li1+  0.746  0.444  0.114  0.001
  Li_i27  Li1+  0.146  0.244  0.714  0.001
  Li_i27  Li1+  0.946  0.044  0.914  0.001
  Li_i27  Li1+  0.746  0.644  0.314  0.001
  Li_i27  Li1+  0.746  0.444  0.714  0.001
  Li_i27  Li1+  0.946  0.644  0.114  0.001
  Li_i27  Li1+  0.546  0.844  0.514  0.001
  Li_i27  Li1+  0.146  0.244  0.314  0.001
  Li_i27  Li1+  0.946  0.644  0.914  0.001
  Li_i27  Li1+  0.746  0.044  0.514  0.001
  Li_i27  Li1+  0.146  0.644  0.514  0.001
  Li_i27  Li1+  0.146  0.444  0.714  0.001
  Li_i27  Li1+  0.546  0.044  0.114  0.001
  Li_i27  Li1+  0.146  0.044  0.714  0.001
  Li_i27  Li1+  0.946  0.844  0.714  0.001
  Li_i27  Li1+  0.346  0.444  0.514  0.001
  Li_i27  Li1+  0.146  0.244  0.514  0.001
  Li_i27  Li1+  0.946  0.244  0.714  0.001
  Li_i27  Li1+  0.146  0.644  0.314  0.001
  Li_i27  Li1+  0.946  0.044  0.314  0.001
  Li_i27  Li1+  0.346  0.644  0.314  0.001
  Li_i27  Li1+  0.546  0.844  0.114  0.001
  Li_i27  Li1+  0.146  0.844  0.914  0.001
  Li_i27  Li1+  0.146  0.444  0.314  0.001
  Li_i27  Li1+  0.546  0.044  0.514  0.001
  Li_i27  Li1+  0.746  0.244  0.114  0.001
  Li_i27  Li1+  0.346  0.844  0.514  0.001
  Li_i27  Li1+  0.746  0.844  0.714  0.001
  Li_i27  Li1+  0.146  0.844  0.314  0.001
  Li_i27  Li1+  0.146  0.644  0.914  0.001
  Li_i27  Li1+  0.346  0.644  0.914  0.001
  Li_i27  Li1+  0.946  0.444  0.514  0.001
  Li_i27  Li1+  0.746  0.044  0.114  0.001
  Li_i27  Li1+  0.146  0.244  0.914  0.001
  Li_i27  Li1+  0.346  0.444  0.314  0.001
  Li_i27  Li1+  0.746  0.244  0.714  0.001
  Li_i27  Li1+  0.546  0.644  0.714  0.001
  Li_i27  Li1+  0.946  0.644  0.314  0.001
  Li_i27  Li1+  0.946  0.244  0.114  0.001
  Li_i27  Li1+  0.746  0.844  0.114  0.001
  Li_i27  Li1+  0.546  0.044  0.914  0.001
  Li_i27  Li1+  0.946  0.844  0.114  0.001
  Li_i27  Li1+  0.146  0.644  0.114  0.001
  Li_i27  Li1+  0.346  0.044  0.114  0.001
  Li_i27  Li1+  0.746  0.444  0.314  0.001
  Li_i27  Li1+  0.946  0.844  0.914  0.001
  Li_i27  Li1+  0.746  0.644  0.514  0.001
  Li_i27  Li1+  0.746  0.444  0.914  0.001
  Li_i28  Li1+  0.750  0.679  0.014  0.001
  Li_i28  Li1+  0.750  0.679  0.614  0.001
  Li_i28  Li1+  0.750  0.079  0.814  0.001
  Li_i28  Li1+  0.150  0.079  0.614  0.001
  Li_i28  Li1+  0.350  0.079  0.814  0.001
  Li_i28  Li1+  0.950  0.479  0.614  0.001
  Li_i28  Li1+  0.950  0.279  0.214  0.001
  Li_i28  Li1+  0.350  0.279  0.614  0.001
  Li_i28  Li1+  0.150  0.679  0.814  0.001
  Li_i28  Li1+  0.350  0.279  0.414  0.001
  Li_i28  Li1+  0.350  0.279  0.214  0.001
  Li_i28  Li1+  0.350  0.279  0.014  0.001
  Li_i28  Li1+  0.150  0.479  0.414  0.001
  Li_i28  Li1+  0.550  0.879  0.414  0.001
  Li_i28  Li1+  0.950  0.679  0.414  0.001
  Li_i28  Li1+  0.550  0.079  0.814  0.001
  Li_i28  Li1+  0.350  0.879  0.814  0.001
  Li_i28  Li1+  0.350  0.679  0.614  0.001
  Li_i28  Li1+  0.750  0.279  0.414  0.001
  Li_i28  Li1+  0.950  0.079  0.614  0.001
  Li_i28  Li1+  0.350  0.479  0.814  0.001
  Li_i28  Li1+  0.150  0.879  0.214  0.001
  Li_i28  Li1+  0.350  0.879  0.214  0.001
  Li_i28  Li1+  0.750  0.079  0.414  0.001
  Li_i28  Li1+  0.150  0.279  0.414  0.001
  Li_i28  Li1+  0.950  0.479  0.014  0.001
  Li_i28  Li1+  0.950  0.879  0.214  0.001
  Li_i28  Li1+  0.550  0.879  0.014  0.001
  Li_i28  Li1+  0.550  0.279  0.214  0.001
  Li_i28  Li1+  0.150  0.879  0.814  0.001
  Li_i28  Li1+  0.750  0.479  0.014  0.001
  Li_i28  Li1+  0.950  0.079  0.014  0.001
  Li_i28  Li1+  0.150  0.079  0.814  0.001
  Li_i28  Li1+  0.150  0.079  0.214  0.001
  Li_i28  Li1+  0.550  0.279  0.614  0.001
  Li_i28  Li1+  0.150  0.279  0.814  0.001
  Li_i28  Li1+  0.750  0.879  0.414  0.001
  Li_i28  Li1+  0.750  0.479  0.614  0.001
  Li_i28  Li1+  0.150  0.279  0.014  0.001
  Li_i28  Li1+  0.950  0.479  0.814  0.001
  Li_i28  Li1+  0.550  0.679  0.614  0.001
  Li_i28  Li1+  0.950  0.279  0.414  0.001
  Li_i28  Li1+  0.750  0.679  0.814  0.001
  Li_i28  Li1+  0.750  0.679  0.214  0.001
  Li_i28  Li1+  0.150  0.679  0.614  0.001
  Li_i28  Li1+  0.550  0.479  0.014  0.001
  Li_i28  Li1+  0.350  0.479  0.614  0.001
  Li_i28  Li1+  0.950  0.679  0.614  0.001
  Li_i28  Li1+  0.550  0.679  0.214  0.001
  Li_i28  Li1+  0.750  0.079  0.014  0.001
  Li_i28  Li1+  0.750  0.279  0.014  0.001
  Li_i28  Li1+  0.550  0.079  0.214  0.001
  Li_i28  Li1+  0.550  0.479  0.414  0.001
  Li_i28  Li1+  0.550  0.479  0.814  0.001
  Li_i28  Li1+  0.150  0.479  0.614  0.001
  Li_i28  Li1+  0.350  0.079  0.014  0.001
  Li_i28  Li1+  0.350  0.679  0.414  0.001
  Li_i28  Li1+  0.950  0.079  0.814  0.001
  Li_i28  Li1+  0.950  0.879  0.414  0.001
  Li_i28  Li1+  0.150  0.479  0.214  0.001
  Li_i28  Li1+  0.150  0.879  0.414  0.001
  Li_i28  Li1+  0.950  0.479  0.214  0.001
  Li_i28  Li1+  0.150  0.479  0.014  0.001
  Li_i28  Li1+  0.350  0.879  0.614  0.001
  Li_i28  Li1+  0.750  0.279  0.614  0.001
  Li_i28  Li1+  0.550  0.879  0.614  0.001
  Li_i28  Li1+  0.350  0.479  0.414  0.001
  Li_i28  Li1+  0.350  0.879  0.014  0.001
  Li_i28  Li1+  0.550  0.079  0.614  0.001
  Li_i28  Li1+  0.950  0.079  0.214  0.001
  Li_i28  Li1+  0.150  0.079  0.014  0.001
  Li_i28  Li1+  0.150  0.679  0.414  0.001
  Li_i28  Li1+  0.350  0.079  0.214  0.001
  Li_i28  Li1+  0.950  0.679  0.014  0.001
  Li_i28  Li1+  0.750  0.479  0.214  0.001
  Li_i28  Li1+  0.750  0.879  0.614  0.001
  Li_i28  Li1+  0.950  0.279  0.614  0.001
  Li_i28  Li1+  0.750  0.079  0.614  0.001
  Li_i28  Li1+  0.150  0.879  0.014  0.001
  Li_i28  Li1+  0.150  0.279  0.214  0.001
  Li_i28  Li1+  0.950  0.679  0.814  0.001
  Li_i28  Li1+  0.750  0.479  0.814  0.001
  Li_i28  Li1+  0.550  0.879  0.214  0.001
  Li_i28  Li1+  0.750  0.879  0.014  0.001
  Li_i28  Li1+  0.150  0.079  0.414  0.001
  Li_i28  Li1+  0.750  0.679  0.414  0.001
  Li_i28  Li1+  0.350  0.679  0.214  0.001
  Li_i28  Li1+  0.550  0.279  0.014  0.001
  Li_i28  Li1+  0.350  0.479  0.214  0.001
  Li_i28  Li1+  0.150  0.679  0.214  0.001
  Li_i28  Li1+  0.950  0.879  0.614  0.001
  Li_i28  Li1+  0.350  0.079  0.414  0.001
  Li_i28  Li1+  0.150  0.879  0.614  0.001
  Li_i28  Li1+  0.550  0.279  0.414  0.001
  Li_i28  Li1+  0.950  0.279  0.014  0.001
  Li_i28  Li1+  0.550  0.079  0.014  0.001
  Li_i28  Li1+  0.950  0.479  0.414  0.001
  Li_i28  Li1+  0.750  0.279  0.214  0.001
  Li_i28  Li1+  0.550  0.679  0.814  0.001
  Li_i28  Li1+  0.350  0.479  0.014  0.001
  Li_i28  Li1+  0.750  0.079  0.214  0.001
  Li_i28  Li1+  0.550  0.279  0.814  0.001
  Li_i28  Li1+  0.150  0.479  0.814  0.001
  Li_i28  Li1+  0.350  0.079  0.614  0.001
  Li_i28  Li1+  0.350  0.679  0.814  0.001
  Li_i28  Li1+  0.550  0.679  0.414  0.001
  Li_i28  Li1+  0.950  0.679  0.214  0.001
  Li_i28  Li1+  0.950  0.079  0.414  0.001
  Li_i28  Li1+  0.350  0.879  0.414  0.001
  Li_i28  Li1+  0.550  0.479  0.614  0.001
  Li_i28  Li1+  0.750  0.279  0.814  0.001
  Li_i28  Li1+  0.550  0.679  0.014  0.001
  Li_i28  Li1+  0.550  0.479  0.214  0.001
  Li_i28  Li1+  0.150  0.679  0.014  0.001
  Li_i28  Li1+  0.950  0.879  0.014  0.001
  Li_i28  Li1+  0.950  0.279  0.814  0.001
  Li_i28  Li1+  0.750  0.879  0.814  0.001
  Li_i28  Li1+  0.150  0.279  0.614  0.001
  Li_i28  Li1+  0.350  0.279  0.814  0.001
  Li_i28  Li1+  0.750  0.479  0.414  0.001
  Li_i28  Li1+  0.550  0.879  0.814  0.001
  Li_i28  Li1+  0.350  0.679  0.014  0.001
  Li_i28  Li1+  0.950  0.879  0.814  0.001
  Li_i28  Li1+  0.750  0.879  0.214  0.001
  Li_i28  Li1+  0.550  0.079  0.414  0.001
  Li_i29  Li1+  0.548  0.942  0.693  0.001
  Li_i29  Li1+  0.348  0.542  0.893  0.001
  Li_i29  Li1+  0.748  0.742  0.293  0.001
  Li_i29  Li1+  0.148  0.542  0.093  0.001
  Li_i29  Li1+  0.948  0.142  0.093  0.001
  Li_i29  Li1+  0.148  0.542  0.293  0.001
  Li_i29  Li1+  0.748  0.942  0.493  0.001
  Li_i29  Li1+  0.948  0.742  0.493  0.001
  Li_i29  Li1+  0.748  0.742  0.893  0.001
  Li_i29  Li1+  0.348  0.142  0.293  0.001
  Li_i29  Li1+  0.548  0.342  0.893  0.001
  Li_i29  Li1+  0.948  0.542  0.093  0.001
  Li_i29  Li1+  0.348  0.742  0.693  0.001
  Li_i29  Li1+  0.548  0.942  0.293  0.001
  Li_i29  Li1+  0.548  0.142  0.493  0.001
  Li_i29  Li1+  0.148  0.142  0.093  0.001
  Li_i29  Li1+  0.748  0.342  0.693  0.001
  Li_i29  Li1+  0.148  0.942  0.693  0.001
  Li_i29  Li1+  0.148  0.742  0.893  0.001
  Li_i29  Li1+  0.748  0.142  0.693  0.001
  Li_i29  Li1+  0.148  0.542  0.693  0.001
  Li_i29  Li1+  0.548  0.542  0.293  0.001
  Li_i29  Li1+  0.948  0.342  0.493  0.001
  Li_i29  Li1+  0.948  0.942  0.293  0.001
  Li_i29  Li1+  0.348  0.542  0.693  0.001
  Li_i29  Li1+  0.548  0.742  0.893  0.001
  Li_i29  Li1+  0.548  0.542  0.693  0.001
  Li_i29  Li1+  0.348  0.942  0.893  0.001
  Li_i29  Li1+  0.348  0.942  0.293  0.001
  Li_i29  Li1+  0.948  0.542  0.893  0.001
  Li_i29  Li1+  0.748  0.542  0.293  0.001
  Li_i29  Li1+  0.548  0.742  0.493  0.001
  Li_i29  Li1+  0.548  0.742  0.093  0.001
  Li_i29  Li1+  0.148  0.342  0.693  0.001
  Li_i29  Li1+  0.348  0.142  0.493  0.001
  Li_i29  Li1+  0.148  0.342  0.493  0.001
  Li_i29  Li1+  0.948  0.142  0.893  0.001
  Li_i29  Li1+  0.748  0.142  0.293  0.001
  Li_i29  Li1+  0.748  0.542  0.893  0.001
  Li_i29  Li1+  0.548  0.142  0.893  0.001
  Li_i29  Li1+  0.148  0.942  0.293  0.001
  Li_i29  Li1+  0.948  0.742  0.693  0.001
  Li_i29  Li1+  0.748  0.342  0.293  0.001
  Li_i29  Li1+  0.348  0.542  0.493  0.001
  Li_i29  Li1+  0.948  0.142  0.293  0.001
  Li_i29  Li1+  0.148  0.342  0.093  0.001
  Li_i29  Li1+  0.748  0.942  0.693  0.001
  Li_i29  Li1+  0.948  0.542  0.293  0.001
  Li_i29  Li1+  0.748  0.742  0.493  0.001
  Li_i29  Li1+  0.348  0.742  0.493  0.001
  Li_i29  Li1+  0.748  0.942  0.093  0.001
  Li_i29  Li1+  0.348  0.142  0.693  0.001
  Li_i29  Li1+  0.148  0.142  0.693  0.001
  Li_i29  Li1+  0.148  0.742  0.693  0.001
  Li_i29  Li1+  0.148  0.142  0.293  0.001
  Li_i29  Li1+  0.548  0.342  0.293  0.001
  Li_i29  Li1+  0.948  0.942  0.493  0.001
  Li_i29  Li1+  0.548  0.942  0.893  0.001
  Li_i29  Li1+  0.348  0.542  0.293  0.001
  Li_i29  Li1+  0.948  0.342  0.693  0.001
  Li_i29  Li1+  0.148  0.942  0.893  0.001
  Li_i29  Li1+  0.548  0.142  0.293  0.001
  Li_i29  Li1+  0.348  0.142  0.893  0.001
  Li_i29  Li1+  0.748  0.342  0.893  0.001
  Li_i29  Li1+  0.948  0.742  0.093  0.001
  Li_i29  Li1+  0.348  0.942  0.093  0.001
  Li_i29  Li1+  0.548  0.342  0.693  0.001
  Li_i29  Li1+  0.348  0.542  0.093  0.001
  Li_i29  Li1+  0.748  0.142  0.893  0.001
  Li_i29  Li1+  0.348  0.942  0.693  0.001
  Li_i29  Li1+  0.548  0.942  0.493  0.001
  Li_i29  Li1+  0.148  0.342  0.293  0.001
  Li_i29  Li1+  0.348  0.742  0.293  0.001
  Li_i29  Li1+  0.948  0.342  0.093  0.001
  Li_i29  Li1+  0.748  0.542  0.493  0.001
  Li_i29  Li1+  0.948  0.742  0.893  0.001
  Li_i29  Li1+  0.148  0.542  0.893  0.001
  Li_i29  Li1+  0.548  0.542  0.093  0.001
  Li_i29  Li1+  0.348  0.342  0.093  0.001
  Li_i29  Li1+  0.548  0.942  0.093  0.001
  Li_i29  Li1+  0.348  0.342  0.893  0.001
  Li_i29  Li1+  0.348  0.342  0.293  0.001
  Li_i29  Li1+  0.948  0.142  0.493  0.001
  Li_i29  Li1+  0.948  0.542  0.493  0.001
  Li_i29  Li1+  0.748  0.742  0.093  0.001
  Li_i29  Li1+  0.348  0.342  0.693  0.001
  Li_i29  Li1+  0.548  0.542  0.493  0.001
  Li_i29  Li1+  0.748  0.942  0.893  0.001
  Li_i29  Li1+  0.548  0.142  0.693  0.001
  Li_i29  Li1+  0.948  0.942  0.693  0.001
  Li_i29  Li1+  0.748  0.742  0.693  0.001
  Li_i29  Li1+  0.748  0.942  0.293  0.001
  Li_i29  Li1+  0.748  0.142  0.493  0.001
  Li_i29  Li1+  0.548  0.742  0.693  0.001
  Li_i29  Li1+  0.748  0.342  0.493  0.001
  Li_i29  Li1+  0.348  0.342  0.493  0.001
  Li_i29  Li1+  0.548  0.742  0.293  0.001
  Li_i29  Li1+  0.548  0.542  0.893  0.001
  Li_i29  Li1+  0.948  0.742  0.293  0.001
  Li_i29  Li1+  0.948  0.342  0.893  0.001
  Li_i29  Li1+  0.148  0.742  0.493  0.001
  Li_i29  Li1+  0.148  0.542  0.493  0.001
  Li_i29  Li1+  0.148  0.742  0.293  0.001
  Li_i29  Li1+  0.348  0.742  0.093  0.001
  Li_i29  Li1+  0.348  0.742  0.893  0.001
  Li_i29  Li1+  0.148  0.942  0.493  0.001
  Li_i29  Li1+  0.148  0.742  0.093  0.001
  Li_i29  Li1+  0.548  0.142  0.093  0.001
  Li_i29  Li1+  0.748  0.542  0.093  0.001
  Li_i29  Li1+  0.748  0.142  0.093  0.001
  Li_i29  Li1+  0.948  0.942  0.093  0.001
  Li_i29  Li1+  0.948  0.342  0.293  0.001
  Li_i29  Li1+  0.548  0.342  0.093  0.001
  Li_i29  Li1+  0.348  0.142  0.093  0.001
  Li_i29  Li1+  0.348  0.942  0.493  0.001
  Li_i29  Li1+  0.148  0.942  0.093  0.001
  Li_i29  Li1+  0.148  0.342  0.893  0.001
  Li_i29  Li1+  0.748  0.342  0.093  0.001
  Li_i29  Li1+  0.948  0.542  0.693  0.001
  Li_i29  Li1+  0.748  0.542  0.693  0.001
  Li_i29  Li1+  0.148  0.142  0.893  0.001
  Li_i29  Li1+  0.948  0.142  0.693  0.001
  Li_i29  Li1+  0.948  0.942  0.893  0.001
  Li_i29  Li1+  0.148  0.142  0.493  0.001
  Li_i29  Li1+  0.548  0.342  0.493  0.001
  Li_i30  Li1+  0.948  0.750  0.556  0.001
  Li_i30  Li1+  0.548  0.550  0.556  0.001
  Li_i30  Li1+  0.348  0.550  0.756  0.001
  Li_i30  Li1+  0.548  0.950  0.556  0.001
  Li_i30  Li1+  0.348  0.750  0.756  0.001
  Li_i30  Li1+  0.948  0.350  0.556  0.001
  Li_i30  Li1+  0.148  0.150  0.556  0.001
  Li_i30  Li1+  0.548  0.350  0.156  0.001
  Li_i30  Li1+  0.548  0.950  0.156  0.001
  Li_i30  Li1+  0.748  0.750  0.556  0.001
  Li_i30  Li1+  0.548  0.550  0.956  0.001
  Li_i30  Li1+  0.748  0.150  0.956  0.001
  Li_i30  Li1+  0.348  0.150  0.956  0.001
  Li_i30  Li1+  0.748  0.350  0.956  0.001
  Li_i30  Li1+  0.948  0.150  0.956  0.001
  Li_i30  Li1+  0.748  0.950  0.156  0.001
  Li_i30  Li1+  0.748  0.950  0.756  0.001
  Li_i30  Li1+  0.548  0.750  0.356  0.001
  Li_i30  Li1+  0.948  0.550  0.956  0.001
  Li_i30  Li1+  0.948  0.150  0.356  0.001
  Li_i30  Li1+  0.948  0.950  0.356  0.001
  Li_i30  Li1+  0.548  0.750  0.756  0.001
  Li_i30  Li1+  0.148  0.350  0.156  0.001
  Li_i30  Li1+  0.348  0.550  0.556  0.001
  Li_i30  Li1+  0.148  0.350  0.956  0.001
  Li_i30  Li1+  0.148  0.150  0.356  0.001
  Li_i30  Li1+  0.348  0.350  0.156  0.001
  Li_i30  Li1+  0.348  0.150  0.156  0.001
  Li_i30  Li1+  0.348  0.950  0.356  0.001
  Li_i30  Li1+  0.548  0.350  0.556  0.001
  Li_i30  Li1+  0.748  0.150  0.556  0.001
  Li_i30  Li1+  0.748  0.550  0.556  0.001
  Li_i30  Li1+  0.548  0.150  0.556  0.001
  Li_i30  Li1+  0.948  0.550  0.356  0.001
  Li_i30  Li1+  0.348  0.550  0.356  0.001
  Li_i30  Li1+  0.948  0.750  0.756  0.001
  Li_i30  Li1+  0.348  0.350  0.356  0.001
  Li_i30  Li1+  0.348  0.950  0.956  0.001
  Li_i30  Li1+  0.348  0.750  0.556  0.001
  Li_i30  Li1+  0.348  0.550  0.156  0.001
  Li_i30  Li1+  0.748  0.350  0.556  0.001
  Li_i30  Li1+  0.548  0.350  0.956  0.001
  Li_i30  Li1+  0.948  0.350  0.756  0.001
  Li_i30  Li1+  0.148  0.350  0.556  0.001
  Li_i30  Li1+  0.748  0.750  0.156  0.001
  Li_i30  Li1+  0.348  0.350  0.556  0.001
  Li_i30  Li1+  0.348  0.350  0.956  0.001
  Li_i30  Li1+  0.748  0.150  0.156  0.001
  Li_i30  Li1+  0.348  0.350  0.756  0.001
  Li_i30  Li1+  0.148  0.750  0.956  0.001
  Li_i30  Li1+  0.148  0.550  0.556  0.001
  Li_i30  Li1+  0.748  0.750  0.756  0.001
  Li_i30  Li1+  0.948  0.350  0.156  0.001
  Li_i30  Li1+  0.148  0.350  0.756  0.001
  Li_i30  Li1+  0.948  0.950  0.556  0.001
  Li_i30  Li1+  0.948  0.750  0.156  0.001
  Li_i30  Li1+  0.548  0.150  0.956  0.001
  Li_i30  Li1+  0.548  0.550  0.356  0.001
  Li_i30  Li1+  0.748  0.950  0.356  0.001
  Li_i30  Li1+  0.948  0.150  0.556  0.001
  Li_i30  Li1+  0.748  0.950  0.956  0.001
  Li_i30  Li1+  0.548  0.950  0.756  0.001
  Li_i30  Li1+  0.348  0.750  0.356  0.001
  Li_i30  Li1+  0.148  0.550  0.956  0.001
  Li_i30  Li1+  0.748  0.550  0.156  0.001
  Li_i30  Li1+  0.348  0.950  0.156  0.001
  Li_i30  Li1+  0.748  0.350  0.156  0.001
  Li_i30  Li1+  0.548  0.550  0.756  0.001
  Li_i30  Li1+  0.548  0.950  0.356  0.001
  Li_i30  Li1+  0.148  0.950  0.756  0.001
  Li_i30  Li1+  0.948  0.750  0.956  0.001
  Li_i30  Li1+  0.948  0.550  0.556  0.001
  Li_i30  Li1+  0.148  0.550  0.156  0.001
  Li_i30  Li1+  0.348  0.150  0.356  0.001
  Li_i30  Li1+  0.148  0.750  0.756  0.001
  Li_i30  Li1+  0.548  0.750  0.156  0.001
  Li_i30  Li1+  0.548  0.750  0.956  0.001
  Li_i30  Li1+  0.748  0.550  0.756  0.001
  Li_i30  Li1+  0.548  0.150  0.356  0.001
  Li_i30  Li1+  0.548  0.750  0.556  0.001
  Li_i30  Li1+  0.348  0.950  0.756  0.001
  Li_i30  Li1+  0.148  0.950  0.356  0.001
  Li_i30  Li1+  0.948  0.350  0.956  0.001
  Li_i30  Li1+  0.548  0.350  0.356  0.001
  Li_i30  Li1+  0.748  0.150  0.756  0.001
  Li_i30  Li1+  0.148  0.150  0.956  0.001
  Li_i30  Li1+  0.148  0.750  0.156  0.001
  Li_i30  Li1+  0.748  0.750  0.356  0.001
  Li_i30  Li1+  0.948  0.950  0.756  0.001
  Li_i30  Li1+  0.748  0.350  0.756  0.001
  Li_i30  Li1+  0.948  0.750  0.356  0.001
  Li_i30  Li1+  0.348  0.750  0.156  0.001
  Li_i30  Li1+  0.948  0.350  0.356  0.001
  Li_i30  Li1+  0.148  0.750  0.556  0.001
  Li_i30  Li1+  0.148  0.750  0.356  0.001
  Li_i30  Li1+  0.348  0.150  0.556  0.001
  Li_i30  Li1+  0.748  0.750  0.956  0.001
  Li_i30  Li1+  0.148  0.550  0.356  0.001
  Li_i30  Li1+  0.948  0.150  0.756  0.001
  Li_i30  Li1+  0.548  0.350  0.756  0.001
  Li_i30  Li1+  0.748  0.950  0.556  0.001
  Li_i30  Li1+  0.348  0.750  0.956  0.001
  Li_i30  Li1+  0.948  0.150  0.156  0.001
  Li_i30  Li1+  0.148  0.150  0.156  0.001
  Li_i30  Li1+  0.748  0.150  0.356  0.001
  Li_i30  Li1+  0.148  0.350  0.356  0.001
  Li_i30  Li1+  0.948  0.950  0.156  0.001
  Li_i30  Li1+  0.948  0.550  0.756  0.001
  Li_i30  Li1+  0.348  0.550  0.956  0.001
  Li_i30  Li1+  0.548  0.150  0.756  0.001
  Li_i30  Li1+  0.148  0.950  0.956  0.001
  Li_i30  Li1+  0.748  0.550  0.356  0.001
  Li_i30  Li1+  0.348  0.150  0.756  0.001
  Li_i30  Li1+  0.548  0.550  0.156  0.001
  Li_i30  Li1+  0.148  0.150  0.756  0.001
  Li_i30  Li1+  0.748  0.350  0.356  0.001
  Li_i30  Li1+  0.348  0.950  0.556  0.001
  Li_i30  Li1+  0.548  0.950  0.956  0.001
  Li_i30  Li1+  0.148  0.550  0.756  0.001
  Li_i30  Li1+  0.548  0.150  0.156  0.001
  Li_i30  Li1+  0.948  0.550  0.156  0.001
  Li_i30  Li1+  0.148  0.950  0.156  0.001
  Li_i30  Li1+  0.948  0.950  0.956  0.001
  Li_i30  Li1+  0.748  0.550  0.956  0.001
  Li_i30  Li1+  0.148  0.950  0.556  0.001
  Li_i31  Li1+  0.548  0.838  0.215  0.001
  Li_i31  Li1+  0.348  0.638  0.615  0.001
  Li_i31  Li1+  0.348  0.038  0.215  0.001
  Li_i31  Li1+  0.548  0.638  0.415  0.001
  Li_i31  Li1+  0.548  0.638  0.815  0.001
  Li_i31  Li1+  0.748  0.638  0.015  0.001
  Li_i31  Li1+  0.548  0.038  0.615  0.001
  Li_i31  Li1+  0.548  0.237  0.615  0.001
  Li_i31  Li1+  0.948  0.438  0.815  0.001
  Li_i31  Li1+  0.348  0.438  0.215  0.001
  Li_i31  Li1+  0.748  0.237  0.015  0.001
  Li_i31  Li1+  0.348  0.237  0.615  0.001
  Li_i31  Li1+  0.548  0.038  0.015  0.001
  Li_i31  Li1+  0.348  0.438  0.015  0.001
  Li_i31  Li1+  0.748  0.438  0.015  0.001
  Li_i31  Li1+  0.348  0.238  0.815  0.001
  Li_i31  Li1+  0.748  0.638  0.615  0.001
  Li_i31  Li1+  0.148  0.038  0.415  0.001
  Li_i31  Li1+  0.948  0.838  0.215  0.001
  Li_i31  Li1+  0.148  0.438  0.015  0.001
  Li_i31  Li1+  0.948  0.438  0.215  0.001
  Li_i31  Li1+  0.148  0.438  0.415  0.001
  Li_i31  Li1+  0.148  0.237  0.015  0.001
  Li_i31  Li1+  0.548  0.438  0.015  0.001
  Li_i31  Li1+  0.348  0.638  0.415  0.001
  Li_i31  Li1+  0.948  0.237  0.615  0.001
  Li_i31  Li1+  0.748  0.838  0.215  0.001
  Li_i31  Li1+  0.148  0.038  0.815  0.001
  Li_i31  Li1+  0.748  0.038  0.615  0.001
  Li_i31  Li1+  0.948  0.638  0.615  0.001
  Li_i31  Li1+  0.348  0.838  0.215  0.001
  Li_i31  Li1+  0.748  0.838  0.815  0.001
  Li_i31  Li1+  0.148  0.838  0.015  0.001
  Li_i31  Li1+  0.948  0.237  0.015  0.001
  Li_i31  Li1+  0.548  0.237  0.015  0.001
  Li_i31  Li1+  0.948  0.038  0.415  0.001
  Li_i31  Li1+  0.148  0.438  0.215  0.001
  Li_i31  Li1+  0.748  0.438  0.615  0.001
  Li_i31  Li1+  0.348  0.038  0.415  0.001
  Li_i31  Li1+  0.148  0.838  0.815  0.001
  Li_i31  Li1+  0.548  0.438  0.415  0.001
  Li_i31  Li1+  0.748  0.237  0.615  0.001
  Li_i31  Li1+  0.148  0.438  0.815  0.001
  Li_i31  Li1+  0.748  0.038  0.215  0.001
  Li_i31  Li1+  0.348  0.838  0.815  0.001
  Li_i31  Li1+  0.948  0.638  0.015  0.001
  Li_i31  Li1+  0.548  0.038  0.415  0.001
  Li_i31  Li1+  0.148  0.838  0.415  0.001
  Li_i31  Li1+  0.348  0.638  0.215  0.001
  Li_i31  Li1+  0.148  0.038  0.615  0.001
  Li_i31  Li1+  0.748  0.638  0.215  0.001
  Li_i31  Li1+  0.548  0.438  0.815  0.001
  Li_i31  Li1+  0.548  0.838  0.815  0.001
  Li_i31  Li1+  0.948  0.838  0.415  0.001
  Li_i31  Li1+  0.148  0.038  0.015  0.001
  Li_i31  Li1+  0.548  0.237  0.415  0.001
  Li_i31  Li1+  0.348  0.038  0.615  0.001
  Li_i31  Li1+  0.548  0.638  0.215  0.001
  Li_i31  Li1+  0.948  0.438  0.415  0.001
  Li_i31  Li1+  0.548  0.838  0.415  0.001
  Li_i31  Li1+  0.148  0.638  0.815  0.001
  Li_i31  Li1+  0.748  0.638  0.815  0.001
  Li_i31  Li1+  0.748  0.237  0.215  0.001
  Li_i31  Li1+  0.748  0.438  0.215  0.001
  Li_i31  Li1+  0.548  0.838  0.015  0.001
  Li_i31  Li1+  0.948  0.638  0.815  0.001
  Li_i31  Li1+  0.148  0.237  0.415  0.001
  Li_i31  Li1+  0.948  0.238  0.815  0.001
  Li_i31  Li1+  0.548  0.638  0.615  0.001
  Li_i31  Li1+  0.748  0.838  0.415  0.001
  Li_i31  Li1+  0.348  0.838  0.015  0.001
  Li_i31  Li1+  0.148  0.638  0.015  0.001
  Li_i31  Li1+  0.948  0.237  0.215  0.001
  Li_i31  Li1+  0.148  0.238  0.815  0.001
  Li_i31  Li1+  0.348  0.638  0.015  0.001
  Li_i31  Li1+  0.948  0.038  0.615  0.001
  Li_i31  Li1+  0.948  0.038  0.015  0.001
  Li_i31  Li1+  0.148  0.638  0.615  0.001
  Li_i31  Li1+  0.548  0.238  0.815  0.001
  Li_i31  Li1+  0.348  0.038  0.015  0.001
  Li_i31  Li1+  0.348  0.038  0.815  0.001
  Li_i31  Li1+  0.948  0.638  0.215  0.001
  Li_i31  Li1+  0.748  0.038  0.815  0.001
  Li_i31  Li1+  0.748  0.438  0.815  0.001
  Li_i31  Li1+  0.548  0.038  0.815  0.001
  Li_i31  Li1+  0.148  0.638  0.215  0.001
  Li_i31  Li1+  0.348  0.838  0.615  0.001
  Li_i31  Li1+  0.948  0.838  0.615  0.001
  Li_i31  Li1+  0.148  0.638  0.415  0.001
  Li_i31  Li1+  0.348  0.438  0.815  0.001
  Li_i31  Li1+  0.548  0.038  0.215  0.001
  Li_i31  Li1+  0.748  0.238  0.815  0.001
  Li_i31  Li1+  0.148  0.038  0.215  0.001
  Li_i31  Li1+  0.148  0.838  0.615  0.001
  Li_i31  Li1+  0.548  0.438  0.215  0.001
  Li_i31  Li1+  0.948  0.438  0.615  0.001
  Li_i31  Li1+  0.748  0.038  0.415  0.001
  Li_i31  Li1+  0.748  0.638  0.415  0.001
  Li_i31  Li1+  0.348  0.638  0.815  0.001
  Li_i31  Li1+  0.348  0.237  0.015  0.001
  Li_i31  Li1+  0.148  0.838  0.215  0.001
  Li_i31  Li1+  0.148  0.438  0.615  0.001
  Li_i31  Li1+  0.348  0.438  0.615  0.001
  Li_i31  Li1+  0.948  0.838  0.015  0.001
  Li_i31  Li1+  0.548  0.438  0.615  0.001
  Li_i31  Li1+  0.548  0.237  0.215  0.001
  Li_i31  Li1+  0.948  0.438  0.015  0.001
  Li_i31  Li1+  0.748  0.838  0.015  0.001
  Li_i31  Li1+  0.348  0.237  0.215  0.001
  Li_i31  Li1+  0.748  0.038  0.015  0.001
  Li_i31  Li1+  0.148  0.237  0.615  0.001
  Li_i31  Li1+  0.948  0.237  0.415  0.001
  Li_i31  Li1+  0.748  0.838  0.615  0.001
  Li_i31  Li1+  0.748  0.438  0.415  0.001
  Li_i31  Li1+  0.348  0.438  0.415  0.001
  Li_i31  Li1+  0.748  0.237  0.415  0.001
  Li_i31  Li1+  0.148  0.237  0.215  0.001
  Li_i31  Li1+  0.948  0.638  0.415  0.001
  Li_i31  Li1+  0.948  0.038  0.815  0.001
  Li_i31  Li1+  0.948  0.038  0.215  0.001
  Li_i31  Li1+  0.348  0.237  0.415  0.001
  Li_i31  Li1+  0.548  0.838  0.615  0.001
  Li_i31  Li1+  0.948  0.838  0.815  0.001
  Li_i31  Li1+  0.548  0.638  0.015  0.001
  Li_i31  Li1+  0.348  0.838  0.415  0.001
  Li_i32  Li1+  0.148  0.365  0.214  0.001
  Li_i32  Li1+  0.148  0.565  0.214  0.001
  Li_i32  Li1+  0.748  0.965  0.814  0.001
  Li_i32  Li1+  0.348  0.965  0.414  0.001
  Li_i32  Li1+  0.348  0.165  0.614  0.001
  Li_i32  Li1+  0.148  0.365  0.014  0.001
  Li_i32  Li1+  0.948  0.565  0.214  0.001
  Li_i32  Li1+  0.148  0.965  0.214  0.001
  Li_i32  Li1+  0.948  0.365  0.614  0.001
  Li_i32  Li1+  0.548  0.565  0.214  0.001
  Li_i32  Li1+  0.948  0.165  0.414  0.001
  Li_i32  Li1+  0.748  0.365  0.214  0.001
  Li_i32  Li1+  0.948  0.365  0.014  0.001
  Li_i32  Li1+  0.548  0.365  0.214  0.001
  Li_i32  Li1+  0.748  0.765  0.214  0.001
  Li_i32  Li1+  0.948  0.965  0.214  0.001
  Li_i32  Li1+  0.348  0.165  0.014  0.001
  Li_i32  Li1+  0.148  0.365  0.814  0.001
  Li_i32  Li1+  0.348  0.765  0.414  0.001
  Li_i32  Li1+  0.148  0.965  0.614  0.001
  Li_i32  Li1+  0.748  0.565  0.214  0.001
  Li_i32  Li1+  0.548  0.165  0.014  0.001
  Li_i32  Li1+  0.548  0.165  0.614  0.001
  Li_i32  Li1+  0.948  0.765  0.614  0.001
  Li_i32  Li1+  0.548  0.565  0.614  0.001
  Li_i32  Li1+  0.148  0.365  0.614  0.001
  Li_i32  Li1+  0.748  0.165  0.814  0.001
  Li_i32  Li1+  0.148  0.565  0.814  0.001
  Li_i32  Li1+  0.748  0.765  0.814  0.001
  Li_i32  Li1+  0.348  0.165  0.814  0.001
  Li_i32  Li1+  0.148  0.165  0.014  0.001
  Li_i32  Li1+  0.348  0.965  0.214  0.001
  Li_i32  Li1+  0.548  0.365  0.614  0.001
  Li_i32  Li1+  0.148  0.165  0.414  0.001
  Li_i32  Li1+  0.348  0.765  0.214  0.001
  Li_i32  Li1+  0.748  0.165  0.414  0.001
  Li_i32  Li1+  0.948  0.765  0.014  0.001
  Li_i32  Li1+  0.548  0.765  0.014  0.001
  Li_i32  Li1+  0.748  0.965  0.414  0.001
  Li_i32  Li1+  0.148  0.165  0.214  0.001
  Li_i32  Li1+  0.748  0.565  0.814  0.001
  Li_i32  Li1+  0.148  0.165  0.614  0.001
  Li_i32  Li1+  0.748  0.365  0.814  0.001
  Li_i32  Li1+  0.148  0.965  0.014  0.001
  Li_i32  Li1+  0.348  0.365  0.014  0.001
  Li_i32  Li1+  0.948  0.565  0.414  0.001
  Li_i32  Li1+  0.348  0.165  0.214  0.001
  Li_i32  Li1+  0.948  0.165  0.014  0.001
  Li_i32  Li1+  0.748  0.165  0.014  0.001
  Li_i32  Li1+  0.548  0.765  0.414  0.001
  Li_i32  Li1+  0.948  0.365  0.814  0.001
  Li_i32  Li1+  0.948  0.965  0.414  0.001
  Li_i32  Li1+  0.948  0.165  0.614  0.001
  Li_i32  Li1+  0.948  0.365  0.214  0.001
  Li_i32  Li1+  0.148  0.765  0.014  0.001
  Li_i32  Li1+  0.548  0.965  0.614  0.001
  Li_i32  Li1+  0.548  0.965  0.214  0.001
  Li_i32  Li1+  0.348  0.965  0.814  0.001
  Li_i32  Li1+  0.548  0.765  0.814  0.001
  Li_i32  Li1+  0.348  0.765  0.014  0.001
  Li_i32  Li1+  0.948  0.765  0.814  0.001
  Li_i32  Li1+  0.548  0.365  0.014  0.001
  Li_i32  Li1+  0.748  0.765  0.414  0.001
  Li_i32  Li1+  0.548  0.565  0.014  0.001
  Li_i32  Li1+  0.748  0.365  0.414  0.001
  Li_i32  Li1+  0.148  0.565  0.614  0.001
  Li_i32  Li1+  0.348  0.365  0.214  0.001
  Li_i32  Li1+  0.548  0.165  0.414  0.001
  Li_i32  Li1+  0.748  0.565  0.414  0.001
  Li_i32  Li1+  0.348  0.965  0.014  0.001
  Li_i32  Li1+  0.148  0.565  0.014  0.001
  Li_i32  Li1+  0.148  0.765  0.814  0.001
  Li_i32  Li1+  0.348  0.565  0.814  0.001
  Li_i32  Li1+  0.948  0.765  0.214  0.001
  Li_i32  Li1+  0.748  0.965  0.014  0.001
  Li_i32  Li1+  0.148  0.965  0.414  0.001
  Li_i32  Li1+  0.348  0.365  0.414  0.001
  Li_i32  Li1+  0.148  0.965  0.814  0.001
  Li_i32  Li1+  0.548  0.565  0.414  0.001
  Li_i32  Li1+  0.748  0.365  0.014  0.001
  Li_i32  Li1+  0.148  0.765  0.214  0.001
  Li_i32  Li1+  0.748  0.965  0.614  0.001
  Li_i32  Li1+  0.348  0.565  0.614  0.001
  Li_i32  Li1+  0.948  0.565  0.614  0.001
  Li_i32  Li1+  0.548  0.365  0.414  0.001
  Li_i32  Li1+  0.348  0.365  0.614  0.001
  Li_i32  Li1+  0.948  0.965  0.614  0.001
  Li_i32  Li1+  0.348  0.565  0.414  0.001
  Li_i32  Li1+  0.348  0.965  0.614  0.001
  Li_i32  Li1+  0.748  0.765  0.014  0.001
  Li_i32  Li1+  0.348  0.765  0.814  0.001
  Li_i32  Li1+  0.948  0.565  0.014  0.001
  Li_i32  Li1+  0.948  0.165  0.214  0.001
  Li_i32  Li1+  0.948  0.365  0.414  0.001
  Li_i32  Li1+  0.148  0.165  0.814  0.001
  Li_i32  Li1+  0.748  0.565  0.014  0.001
  Li_i32  Li1+  0.948  0.165  0.814  0.001
  Li_i32  Li1+  0.548  0.565  0.814  0.001
  Li_i32  Li1+  0.748  0.165  0.614  0.001
  Li_i32  Li1+  0.948  0.965  0.014  0.001
  Li_i32  Li1+  0.348  0.365  0.814  0.001
  Li_i32  Li1+  0.348  0.565  0.214  0.001
  Li_i32  Li1+  0.548  0.165  0.814  0.001
  Li_i32  Li1+  0.348  0.565  0.014  0.001
  Li_i32  Li1+  0.548  0.165  0.214  0.001
  Li_i32  Li1+  0.548  0.765  0.214  0.001
  Li_i32  Li1+  0.748  0.165  0.214  0.001
  Li_i32  Li1+  0.748  0.765  0.614  0.001
  Li_i32  Li1+  0.548  0.365  0.814  0.001
  Li_i32  Li1+  0.348  0.165  0.414  0.001
  Li_i32  Li1+  0.948  0.765  0.414  0.001
  Li_i32  Li1+  0.148  0.765  0.614  0.001
  Li_i32  Li1+  0.148  0.765  0.414  0.001
  Li_i32  Li1+  0.548  0.965  0.814  0.001
  Li_i32  Li1+  0.748  0.365  0.614  0.001
  Li_i32  Li1+  0.548  0.765  0.614  0.001
  Li_i32  Li1+  0.748  0.565  0.614  0.001
  Li_i32  Li1+  0.548  0.965  0.014  0.001
  Li_i32  Li1+  0.748  0.965  0.214  0.001
  Li_i32  Li1+  0.548  0.965  0.414  0.001
  Li_i32  Li1+  0.148  0.365  0.414  0.001
  Li_i32  Li1+  0.348  0.765  0.614  0.001
  Li_i32  Li1+  0.948  0.965  0.814  0.001
  Li_i32  Li1+  0.948  0.565  0.814  0.001
  Li_i32  Li1+  0.148  0.565  0.414  0.001
  Li_i33  Li1+  0.558  0.021  0.349  0.001
  Li_i33  Li1+  0.758  0.421  0.949  0.001
  Li_i33  Li1+  0.158  0.221  0.549  0.001
  Li_i33  Li1+  0.558  0.021  0.949  0.001
  Li_i33  Li1+  0.358  0.221  0.149  0.001
  Li_i33  Li1+  0.158  0.821  0.949  0.001
  Li_i33  Li1+  0.158  0.021  0.349  0.001
  Li_i33  Li1+  0.358  0.821  0.549  0.001
  Li_i33  Li1+  0.758  0.821  0.549  0.001
  Li_i33  Li1+  0.358  0.621  0.549  0.001
  Li_i33  Li1+  0.158  0.421  0.949  0.001
  Li_i33  Li1+  0.758  0.221  0.549  0.001
  Li_i33  Li1+  0.958  0.821  0.349  0.001
  Li_i33  Li1+  0.158  0.421  0.149  0.001
  Li_i33  Li1+  0.558  0.421  0.949  0.001
  Li_i33  Li1+  0.558  0.221  0.949  0.001
  Li_i33  Li1+  0.358  0.221  0.349  0.001
  Li_i33  Li1+  0.958  0.621  0.749  0.001
  Li_i33  Li1+  0.158  0.021  0.749  0.001
  Li_i33  Li1+  0.158  0.021  0.549  0.001
  Li_i33  Li1+  0.358  0.621  0.349  0.001
  Li_i33  Li1+  0.958  0.021  0.149  0.001
  Li_i33  Li1+  0.358  0.021  0.549  0.001
  Li_i33  Li1+  0.758  0.621  0.549  0.001
  Li_i33  Li1+  0.758  0.421  0.549  0.001
  Li_i33  Li1+  0.158  0.421  0.749  0.001
  Li_i33  Li1+  0.758  0.221  0.149  0.001
  Li_i33  Li1+  0.958  0.621  0.149  0.001
  Li_i33  Li1+  0.958  0.021  0.749  0.001
  Li_i33  Li1+  0.558  0.621  0.349  0.001
  Li_i33  Li1+  0.358  0.221  0.549  0.001
  Li_i33  Li1+  0.558  0.021  0.149  0.001
  Li_i33  Li1+  0.958  0.221  0.349  0.001
  Li_i33  Li1+  0.958  0.421  0.549  0.001
  Li_i33  Li1+  0.358  0.821  0.349  0.001
  Li_i33  Li1+  0.958  0.221  0.949  0.001
  Li_i33  Li1+  0.558  0.221  0.349  0.001
  Li_i33  Li1+  0.158  0.821  0.349  0.001
  Li_i33  Li1+  0.158  0.221  0.749  0.001
  Li_i33  Li1+  0.758  0.021  0.749  0.001
  Li_i33  Li1+  0.558  0.621  0.749  0.001
  Li_i33  Li1+  0.558  0.021  0.749  0.001
  Li_i33  Li1+  0.758  0.821  0.149  0.001
  Li_i33  Li1+  0.358  0.621  0.149  0.001
  Li_i33  Li1+  0.558  0.821  0.149  0.001
  Li_i33  Li1+  0.758  0.021  0.349  0.001
  Li_i33  Li1+  0.758  0.421  0.149  0.001
  Li_i33  Li1+  0.558  0.421  0.349  0.001
  Li_i33  Li1+  0.158  0.621  0.149  0.001
  Li_i33  Li1+  0.958  0.821  0.549  0.001
  Li_i33  Li1+  0.758  0.621  0.149  0.001
  Li_i33  Li1+  0.558  0.821  0.949  0.001
  Li_i33  Li1+  0.558  0.821  0.549  0.001
  Li_i33  Li1+  0.758  0.821  0.749  0.001
  Li_i33  Li1+  0.358  0.221  0.749  0.001
  Li_i33  Li1+  0.958  0.621  0.949  0.001
  Li_i33  Li1+  0.158  0.221  0.949  0.001
  Li_i33  Li1+  0.358  0.421  0.949  0.001
  Li_i33  Li1+  0.158  0.821  0.749  0.001
  Li_i33  Li1+  0.358  0.221  0.949  0.001
  Li_i33  Li1+  0.358  0.021  0.149  0.001
  Li_i33  Li1+  0.358  0.821  0.149  0.001
  Li_i33  Li1+  0.358  0.821  0.949  0.001
  Li_i33  Li1+  0.758  0.221  0.749  0.001
  Li_i33  Li1+  0.558  0.421  0.749  0.001
  Li_i33  Li1+  0.958  0.621  0.349  0.001
  Li_i33  Li1+  0.958  0.021  0.349  0.001
  Li_i33  Li1+  0.558  0.221  0.749  0.001
  Li_i33  Li1+  0.358  0.421  0.749  0.001
  Li_i33  Li1+  0.358  0.421  0.549  0.001
  Li_i33  Li1+  0.758  0.621  0.749  0.001
  Li_i33  Li1+  0.358  0.421  0.149  0.001
  Li_i33  Li1+  0.958  0.421  0.749  0.001
  Li_i33  Li1+  0.958  0.021  0.949  0.001
  Li_i33  Li1+  0.958  0.221  0.549  0.001
  Li_i33  Li1+  0.358  0.421  0.349  0.001
  Li_i33  Li1+  0.958  0.421  0.149  0.001
  Li_i33  Li1+  0.758  0.421  0.749  0.001
  Li_i33  Li1+  0.358  0.021  0.749  0.001
  Li_i33  Li1+  0.158  0.421  0.549  0.001
  Li_i33  Li1+  0.558  0.021  0.549  0.001
  Li_i33  Li1+  0.558  0.221  0.149  0.001
  Li_i33  Li1+  0.158  0.421  0.349  0.001
  Li_i33  Li1+  0.758  0.221  0.349  0.001
  Li_i33  Li1+  0.558  0.621  0.149  0.001
  Li_i33  Li1+  0.958  0.821  0.749  0.001
  Li_i33  Li1+  0.158  0.621  0.349  0.001
  Li_i33  Li1+  0.158  0.821  0.149  0.001
  Li_i33  Li1+  0.758  0.821  0.349  0.001
  Li_i33  Li1+  0.358  0.621  0.949  0.001
  Li_i33  Li1+  0.158  0.021  0.949  0.001
  Li_i33  Li1+  0.558  0.421  0.149  0.001
  Li_i33  Li1+  0.158  0.021  0.149  0.001
  Li_i33  Li1+  0.758  0.021  0.949  0.001
  Li_i33  Li1+  0.158  0.621  0.949  0.001
  Li_i33  Li1+  0.958  0.821  0.149  0.001
  Li_i33  Li1+  0.558  0.621  0.549  0.001
  Li_i33  Li1+  0.758  0.421  0.349  0.001
  Li_i33  Li1+  0.758  0.621  0.349  0.001
  Li_i33  Li1+  0.758  0.821  0.949  0.001
  Li_i33  Li1+  0.358  0.821  0.749  0.001
  Li_i33  Li1+  0.158  0.621  0.549  0.001
  Li_i33  Li1+  0.358  0.021  0.949  0.001
  Li_i33  Li1+  0.958  0.621  0.549  0.001
  Li_i33  Li1+  0.758  0.021  0.549  0.001
  Li_i33  Li1+  0.158  0.621  0.749  0.001
  Li_i33  Li1+  0.558  0.621  0.949  0.001
  Li_i33  Li1+  0.558  0.821  0.349  0.001
  Li_i33  Li1+  0.158  0.221  0.149  0.001
  Li_i33  Li1+  0.958  0.021  0.549  0.001
  Li_i33  Li1+  0.758  0.021  0.149  0.001
  Li_i33  Li1+  0.558  0.821  0.749  0.001
  Li_i33  Li1+  0.958  0.421  0.949  0.001
  Li_i33  Li1+  0.358  0.621  0.749  0.001
  Li_i33  Li1+  0.358  0.021  0.349  0.001
  Li_i33  Li1+  0.958  0.221  0.749  0.001
  Li_i33  Li1+  0.958  0.221  0.149  0.001
  Li_i33  Li1+  0.958  0.421  0.349  0.001
  Li_i33  Li1+  0.558  0.221  0.549  0.001
  Li_i33  Li1+  0.158  0.821  0.549  0.001
  Li_i33  Li1+  0.758  0.621  0.949  0.001
  Li_i33  Li1+  0.758  0.221  0.949  0.001
  Li_i33  Li1+  0.958  0.821  0.949  0.001
  Li_i33  Li1+  0.158  0.221  0.349  0.001
  Li_i33  Li1+  0.558  0.421  0.549  0.001
  Li_i34  Li1+  0.346  0.135  0.747  0.001
  Li_i34  Li1+  0.146  0.335  0.347  0.001
  Li_i34  Li1+  0.546  0.535  0.147  0.001
  Li_i34  Li1+  0.546  0.735  0.147  0.001
  Li_i34  Li1+  0.946  0.135  0.747  0.001
  Li_i34  Li1+  0.346  0.335  0.747  0.001
  Li_i34  Li1+  0.146  0.135  0.147  0.001
  Li_i34  Li1+  0.746  0.935  0.147  0.001
  Li_i34  Li1+  0.546  0.135  0.347  0.001
  Li_i34  Li1+  0.946  0.935  0.347  0.001
  Li_i34  Li1+  0.746  0.735  0.147  0.001
  Li_i34  Li1+  0.946  0.735  0.747  0.001
  Li_i34  Li1+  0.346  0.935  0.547  0.001
  Li_i34  Li1+  0.946  0.335  0.347  0.001
  Li_i34  Li1+  0.346  0.735  0.347  0.001
  Li_i34  Li1+  0.146  0.535  0.747  0.001
  Li_i34  Li1+  0.746  0.335  0.747  0.001
  Li_i34  Li1+  0.546  0.335  0.547  0.001
  Li_i34  Li1+  0.946  0.735  0.147  0.001
  Li_i34  Li1+  0.946  0.335  0.947  0.001
  Li_i34  Li1+  0.146  0.535  0.347  0.001
  Li_i34  Li1+  0.946  0.535  0.547  0.001
  Li_i34  Li1+  0.546  0.135  0.947  0.001
  Li_i34  Li1+  0.546  0.735  0.547  0.001
  Li_i34  Li1+  0.346  0.335  0.947  0.001
  Li_i34  Li1+  0.146  0.935  0.547  0.001
  Li_i34  Li1+  0.746  0.935  0.747  0.001
  Li_i34  Li1+  0.346  0.735  0.147  0.001
  Li_i34  Li1+  0.146  0.535  0.547  0.001
  Li_i34  Li1+  0.346  0.535  0.147  0.001
  Li_i34  Li1+  0.746  0.335  0.347  0.001
  Li_i34  Li1+  0.546  0.535  0.547  0.001
  Li_i34  Li1+  0.746  0.535  0.747  0.001
  Li_i34  Li1+  0.546  0.735  0.947  0.001
  Li_i34  Li1+  0.346  0.535  0.947  0.001
  Li_i34  Li1+  0.746  0.735  0.747  0.001
  Li_i34  Li1+  0.346  0.935  0.347  0.001
  Li_i34  Li1+  0.546  0.935  0.347  0.001
  Li_i34  Li1+  0.746  0.135  0.947  0.001
  Li_i34  Li1+  0.146  0.335  0.547  0.001
  Li_i34  Li1+  0.946  0.135  0.347  0.001
  Li_i34  Li1+  0.346  0.535  0.547  0.001
  Li_i34  Li1+  0.346  0.535  0.747  0.001
  Li_i34  Li1+  0.746  0.135  0.547  0.001
  Li_i34  Li1+  0.546  0.935  0.747  0.001
  Li_i34  Li1+  0.546  0.135  0.147  0.001
  Li_i34  Li1+  0.746  0.135  0.147  0.001
  Li_i34  Li1+  0.946  0.935  0.547  0.001
  Li_i34  Li1+  0.346  0.535  0.347  0.001
  Li_i34  Li1+  0.546  0.335  0.947  0.001
  Li_i34  Li1+  0.946  0.735  0.947  0.001
  Li_i34  Li1+  0.946  0.135  0.947  0.001
  Li_i34  Li1+  0.746  0.535  0.347  0.001
  Li_i34  Li1+  0.146  0.735  0.147  0.001
  Li_i34  Li1+  0.346  0.135  0.347  0.001
  Li_i34  Li1+  0.946  0.335  0.547  0.001
  Li_i34  Li1+  0.746  0.935  0.347  0.001
  Li_i34  Li1+  0.946  0.735  0.347  0.001
  Li_i34  Li1+  0.346  0.135  0.947  0.001
  Li_i34  Li1+  0.146  0.135  0.947  0.001
  Li_i34  Li1+  0.546  0.535  0.947  0.001
  Li_i34  Li1+  0.946  0.535  0.747  0.001
  Li_i34  Li1+  0.946  0.535  0.147  0.001
  Li_i34  Li1+  0.746  0.735  0.347  0.001
  Li_i34  Li1+  0.146  0.935  0.947  0.001
  Li_i34  Li1+  0.546  0.135  0.747  0.001
  Li_i34  Li1+  0.546  0.335  0.347  0.001
  Li_i34  Li1+  0.346  0.935  0.147  0.001
  Li_i34  Li1+  0.146  0.135  0.547  0.001
  Li_i34  Li1+  0.146  0.135  0.747  0.001
  Li_i34  Li1+  0.146  0.335  0.147  0.001
  Li_i34  Li1+  0.746  0.335  0.947  0.001
  Li_i34  Li1+  0.746  0.935  0.947  0.001
  Li_i34  Li1+  0.146  0.935  0.347  0.001
  Li_i34  Li1+  0.346  0.935  0.947  0.001
  Li_i34  Li1+  0.546  0.735  0.347  0.001
  Li_i34  Li1+  0.146  0.735  0.347  0.001
  Li_i34  Li1+  0.346  0.335  0.147  0.001
  Li_i34  Li1+  0.146  0.535  0.147  0.001
  Li_i34  Li1+  0.546  0.535  0.347  0.001
  Li_i34  Li1+  0.146  0.335  0.747  0.001
  Li_i34  Li1+  0.746  0.535  0.947  0.001
  Li_i34  Li1+  0.746  0.735  0.947  0.001
  Li_i34  Li1+  0.346  0.735  0.947  0.001
  Li_i34  Li1+  0.946  0.935  0.747  0.001
  Li_i34  Li1+  0.946  0.135  0.547  0.001
  Li_i34  Li1+  0.746  0.335  0.547  0.001
  Li_i34  Li1+  0.146  0.135  0.347  0.001
  Li_i34  Li1+  0.346  0.135  0.547  0.001
  Li_i34  Li1+  0.546  0.735  0.747  0.001
  Li_i34  Li1+  0.146  0.735  0.547  0.001
  Li_i34  Li1+  0.946  0.935  0.147  0.001
  Li_i34  Li1+  0.346  0.335  0.347  0.001
  Li_i34  Li1+  0.546  0.335  0.747  0.001
  Li_i34  Li1+  0.946  0.335  0.147  0.001
  Li_i34  Li1+  0.546  0.135  0.547  0.001
  Li_i34  Li1+  0.946  0.735  0.547  0.001
  Li_i34  Li1+  0.746  0.335  0.147  0.001
  Li_i34  Li1+  0.946  0.335  0.747  0.001
  Li_i34  Li1+  0.546  0.935  0.147  0.001
  Li_i34  Li1+  0.146  0.935  0.747  0.001
  Li_i34  Li1+  0.146  0.935  0.147  0.001
  Li_i34  Li1+  0.946  0.535  0.947  0.001
  Li_i34  Li1+  0.346  0.735  0.747  0.001
  Li_i34  Li1+  0.946  0.535  0.347  0.001
  Li_i34  Li1+  0.746  0.935  0.547  0.001
  Li_i34  Li1+  0.546  0.535  0.747  0.001
  Li_i34  Li1+  0.746  0.535  0.547  0.001
  Li_i34  Li1+  0.746  0.135  0.747  0.001
  Li_i34  Li1+  0.546  0.935  0.547  0.001
  Li_i34  Li1+  0.546  0.335  0.147  0.001
  Li_i34  Li1+  0.746  0.135  0.347  0.001
  Li_i34  Li1+  0.746  0.735  0.547  0.001
  Li_i34  Li1+  0.546  0.935  0.947  0.001
  Li_i34  Li1+  0.346  0.935  0.747  0.001
  Li_i34  Li1+  0.146  0.335  0.947  0.001
  Li_i34  Li1+  0.346  0.135  0.147  0.001
  Li_i34  Li1+  0.146  0.735  0.947  0.001
  Li_i34  Li1+  0.346  0.335  0.547  0.001
  Li_i34  Li1+  0.946  0.135  0.147  0.001
  Li_i34  Li1+  0.146  0.735  0.747  0.001
  Li_i34  Li1+  0.146  0.535  0.947  0.001
  Li_i34  Li1+  0.946  0.935  0.947  0.001
  Li_i34  Li1+  0.346  0.735  0.547  0.001
  Li_i34  Li1+  0.746  0.535  0.147  0.001
  Li_i35  Li1+  0.348  0.404  0.082  0.001
  Li_i35  Li1+  0.748  0.604  0.682  0.001
  Li_i35  Li1+  0.548  0.604  0.282  0.001
  Li_i35  Li1+  0.948  0.204  0.882  0.001
  Li_i35  Li1+  0.348  0.604  0.282  0.001
  Li_i35  Li1+  0.548  0.204  0.682  0.001
  Li_i35  Li1+  0.948  0.604  0.682  0.001
  Li_i35  Li1+  0.148  0.804  0.082  0.001
  Li_i35  Li1+  0.948  0.804  0.282  0.001
  Li_i35  Li1+  0.548  0.204  0.082  0.001
  Li_i35  Li1+  0.948  0.404  0.482  0.001
  Li_i35  Li1+  0.948  0.604  0.082  0.001
  Li_i35  Li1+  0.748  0.404  0.282  0.001
  Li_i35  Li1+  0.148  0.604  0.882  0.001
  Li_i35  Li1+  0.348  0.404  0.282  0.001
  Li_i35  Li1+  0.348  0.604  0.082  0.001
  Li_i35  Li1+  0.348  0.404  0.482  0.001
  Li_i35  Li1+  0.348  0.804  0.482  0.001
  Li_i35  Li1+  0.548  0.604  0.682  0.001
  Li_i35  Li1+  0.948  0.004  0.282  0.001
  Li_i35  Li1+  0.348  0.404  0.882  0.001
  Li_i35  Li1+  0.148  0.404  0.482  0.001
  Li_i35  Li1+  0.548  0.404  0.682  0.001
  Li_i35  Li1+  0.348  0.404  0.682  0.001
  Li_i35  Li1+  0.748  0.604  0.282  0.001
  Li_i35  Li1+  0.748  0.204  0.882  0.001
  Li_i35  Li1+  0.748  0.804  0.282  0.001
  Li_i35  Li1+  0.548  0.004  0.282  0.001
  Li_i35  Li1+  0.148  0.204  0.682  0.001
  Li_i35  Li1+  0.548  0.804  0.082  0.001
  Li_i35  Li1+  0.148  0.804  0.682  0.001
  Li_i35  Li1+  0.948  0.004  0.882  0.001
  Li_i35  Li1+  0.148  0.004  0.282  0.001
  Li_i35  Li1+  0.348  0.204  0.082  0.001
  Li_i35  Li1+  0.348  0.004  0.482  0.001
  Li_i35  Li1+  0.748  0.204  0.482  0.001
  Li_i35  Li1+  0.348  0.804  0.282  0.001
  Li_i35  Li1+  0.548  0.404  0.082  0.001
  Li_i35  Li1+  0.948  0.204  0.482  0.001
  Li_i35  Li1+  0.548  0.804  0.482  0.001
  Li_i35  Li1+  0.148  0.404  0.082  0.001
  Li_i35  Li1+  0.548  0.004  0.882  0.001
  Li_i35  Li1+  0.748  0.204  0.082  0.001
  Li_i35  Li1+  0.748  0.404  0.882  0.001
  Li_i35  Li1+  0.748  0.804  0.882  0.001
  Li_i35  Li1+  0.148  0.604  0.082  0.001
  Li_i35  Li1+  0.948  0.604  0.882  0.001
  Li_i35  Li1+  0.948  0.804  0.482  0.001
  Li_i35  Li1+  0.948  0.404  0.082  0.001
  Li_i35  Li1+  0.548  0.204  0.482  0.001
  Li_i35  Li1+  0.548  0.804  0.882  0.001
  Li_i35  Li1+  0.948  0.604  0.282  0.001
  Li_i35  Li1+  0.948  0.404  0.682  0.001
  Li_i35  Li1+  0.748  0.004  0.682  0.001
  Li_i35  Li1+  0.748  0.604  0.882  0.001
  Li_i35  Li1+  0.748  0.004  0.282  0.001
  Li_i35  Li1+  0.348  0.004  0.082  0.001
  Li_i35  Li1+  0.148  0.004  0.682  0.001
  Li_i35  Li1+  0.548  0.604  0.082  0.001
  Li_i35  Li1+  0.148  0.204  0.482  0.001
  Li_i35  Li1+  0.348  0.204  0.282  0.001
  Li_i35  Li1+  0.148  0.204  0.882  0.001
  Li_i35  Li1+  0.548  0.004  0.082  0.001
  Li_i35  Li1+  0.748  0.404  0.482  0.001
  Li_i35  Li1+  0.948  0.004  0.482  0.001
  Li_i35  Li1+  0.148  0.004  0.482  0.001
  Li_i35  Li1+  0.348  0.804  0.082  0.001
  Li_i35  Li1+  0.148  0.804  0.482  0.001
  Li_i35  Li1+  0.148  0.204  0.082  0.001
  Li_i35  Li1+  0.348  0.004  0.682  0.001
  Li_i35  Li1+  0.148  0.604  0.282  0.001
  Li_i35  Li1+  0.548  0.404  0.482  0.001
  Li_i35  Li1+  0.548  0.604  0.482  0.001
  Li_i35  Li1+  0.748  0.804  0.482  0.001
  Li_i35  Li1+  0.348  0.204  0.482  0.001
  Li_i35  Li1+  0.948  0.204  0.082  0.001
  Li_i35  Li1+  0.748  0.604  0.482  0.001
  Li_i35  Li1+  0.148  0.004  0.082  0.001
  Li_i35  Li1+  0.148  0.404  0.282  0.001
  Li_i35  Li1+  0.748  0.404  0.082  0.001
  Li_i35  Li1+  0.548  0.004  0.682  0.001
  Li_i35  Li1+  0.948  0.204  0.682  0.001
  Li_i35  Li1+  0.348  0.604  0.882  0.001
  Li_i35  Li1+  0.548  0.204  0.882  0.001
  Li_i35  Li1+  0.348  0.804  0.882  0.001
  Li_i35  Li1+  0.948  0.804  0.682  0.001
  Li_i35  Li1+  0.548  0.604  0.882  0.001
  Li_i35  Li1+  0.148  0.404  0.882  0.001
  Li_i35  Li1+  0.548  0.204  0.282  0.001
  Li_i35  Li1+  0.148  0.004  0.882  0.001
  Li_i35  Li1+  0.948  0.804  0.082  0.001
  Li_i35  Li1+  0.948  0.604  0.482  0.001
  Li_i35  Li1+  0.148  0.804  0.882  0.001
  Li_i35  Li1+  0.948  0.404  0.282  0.001
  Li_i35  Li1+  0.748  0.204  0.682  0.001
  Li_i35  Li1+  0.948  0.404  0.882  0.001
  Li_i35  Li1+  0.548  0.804  0.282  0.001
  Li_i35  Li1+  0.948  0.004  0.082  0.001
  Li_i35  Li1+  0.348  0.204  0.682  0.001
  Li_i35  Li1+  0.748  0.604  0.082  0.001
  Li_i35  Li1+  0.148  0.804  0.282  0.001
  Li_i35  Li1+  0.348  0.604  0.682  0.001
  Li_i35  Li1+  0.548  0.404  0.882  0.001
  Li_i35  Li1+  0.748  0.804  0.082  0.001
  Li_i35  Li1+  0.348  0.004  0.282  0.001
  Li_i35  Li1+  0.748  0.204  0.282  0.001
  Li_i35  Li1+  0.148  0.604  0.482  0.001
  Li_i35  Li1+  0.548  0.804  0.682  0.001
  Li_i35  Li1+  0.148  0.204  0.282  0.001
  Li_i35  Li1+  0.948  0.004  0.682  0.001
  Li_i35  Li1+  0.348  0.204  0.882  0.001
  Li_i35  Li1+  0.748  0.004  0.882  0.001
  Li_i35  Li1+  0.748  0.004  0.482  0.001
  Li_i35  Li1+  0.748  0.004  0.082  0.001
  Li_i35  Li1+  0.348  0.004  0.882  0.001
  Li_i35  Li1+  0.748  0.404  0.682  0.001
  Li_i35  Li1+  0.348  0.804  0.682  0.001
  Li_i35  Li1+  0.548  0.004  0.482  0.001
  Li_i35  Li1+  0.348  0.604  0.482  0.001
  Li_i35  Li1+  0.948  0.204  0.282  0.001
  Li_i35  Li1+  0.148  0.404  0.682  0.001
  Li_i35  Li1+  0.748  0.804  0.682  0.001
  Li_i35  Li1+  0.548  0.404  0.282  0.001
  Li_i35  Li1+  0.148  0.604  0.682  0.001
  Li_i35  Li1+  0.948  0.804  0.882  0.001
  Li_i36  Li1+  0.960  0.654  0.782  0.001
  Li_i36  Li1+  0.960  0.654  0.182  0.001
  Li_i36  Li1+  0.560  0.654  0.582  0.001
  Li_i36  Li1+  0.360  0.854  0.782  0.001
  Li_i36  Li1+  0.360  0.654  0.182  0.001
  Li_i36  Li1+  0.960  0.854  0.382  0.001
  Li_i36  Li1+  0.760  0.454  0.982  0.001
  Li_i36  Li1+  0.360  0.454  0.982  0.001
  Li_i36  Li1+  0.360  0.454  0.782  0.001
  Li_i36  Li1+  0.160  0.054  0.382  0.001
  Li_i36  Li1+  0.560  0.054  0.582  0.001
  Li_i36  Li1+  0.960  0.054  0.982  0.001
  Li_i36  Li1+  0.160  0.254  0.382  0.001
  Li_i36  Li1+  0.160  0.854  0.382  0.001
  Li_i36  Li1+  0.360  0.254  0.382  0.001
  Li_i36  Li1+  0.560  0.654  0.982  0.001
  Li_i36  Li1+  0.160  0.654  0.782  0.001
  Li_i36  Li1+  0.760  0.654  0.982  0.001
  Li_i36  Li1+  0.760  0.854  0.982  0.001
  Li_i36  Li1+  0.360  0.054  0.782  0.001
  Li_i36  Li1+  0.760  0.454  0.582  0.001
  Li_i36  Li1+  0.960  0.254  0.582  0.001
  Li_i36  Li1+  0.560  0.454  0.982  0.001
  Li_i36  Li1+  0.360  0.854  0.582  0.001
  Li_i36  Li1+  0.160  0.054  0.182  0.001
  Li_i36  Li1+  0.160  0.854  0.982  0.001
  Li_i36  Li1+  0.560  0.854  0.382  0.001
  Li_i36  Li1+  0.160  0.654  0.982  0.001
  Li_i36  Li1+  0.560  0.254  0.182  0.001
  Li_i36  Li1+  0.160  0.854  0.182  0.001
  Li_i36  Li1+  0.560  0.454  0.382  0.001
  Li_i36  Li1+  0.760  0.454  0.182  0.001
  Li_i36  Li1+  0.960  0.454  0.182  0.001
  Li_i36  Li1+  0.560  0.254  0.782  0.001
  Li_i36  Li1+  0.160  0.654  0.182  0.001
  Li_i36  Li1+  0.360  0.254  0.582  0.001
  Li_i36  Li1+  0.360  0.054  0.382  0.001
  Li_i36  Li1+  0.760  0.654  0.582  0.001
  Li_i36  Li1+  0.960  0.454  0.782  0.001
  Li_i36  Li1+  0.960  0.054  0.582  0.001
  Li_i36  Li1+  0.560  0.854  0.782  0.001
  Li_i36  Li1+  0.960  0.654  0.982  0.001
  Li_i36  Li1+  0.960  0.654  0.382  0.001
  Li_i36  Li1+  0.560  0.054  0.382  0.001
  Li_i36  Li1+  0.360  0.854  0.382  0.001
  Li_i36  Li1+  0.960  0.854  0.582  0.001
  Li_i36  Li1+  0.760  0.854  0.582  0.001
  Li_i36  Li1+  0.760  0.254  0.782  0.001
  Li_i36  Li1+  0.160  0.054  0.582  0.001
  Li_i36  Li1+  0.560  0.654  0.382  0.001
  Li_i36  Li1+  0.760  0.054  0.182  0.001
  Li_i36  Li1+  0.160  0.254  0.782  0.001
  Li_i36  Li1+  0.760  0.254  0.382  0.001
  Li_i36  Li1+  0.760  0.054  0.582  0.001
  Li_i36  Li1+  0.160  0.454  0.382  0.001
  Li_i36  Li1+  0.760  0.054  0.982  0.001
  Li_i36  Li1+  0.960  0.254  0.182  0.001
  Li_i36  Li1+  0.160  0.254  0.182  0.001
  Li_i36  Li1+  0.760  0.654  0.182  0.001
  Li_i36  Li1+  0.160  0.254  0.582  0.001
  Li_i36  Li1+  0.360  0.254  0.782  0.001
  Li_i36  Li1+  0.360  0.054  0.982  0.001
  Li_i36  Li1+  0.360  0.854  0.182  0.001
  Li_i36  Li1+  0.160  0.854  0.782  0.001
  Li_i36  Li1+  0.560  0.454  0.782  0.001
  Li_i36  Li1+  0.960  0.254  0.782  0.001
  Li_i36  Li1+  0.560  0.054  0.982  0.001
  Li_i36  Li1+  0.160  0.054  0.982  0.001
  Li_i36  Li1+  0.960  0.054  0.182  0.001
  Li_i36  Li1+  0.760  0.854  0.182  0.001
  Li_i36  Li1+  0.560  0.654  0.782  0.001
  Li_i36  Li1+  0.160  0.654  0.382  0.001
  Li_i36  Li1+  0.560  0.054  0.182  0.001
  Li_i36  Li1+  0.760  0.454  0.782  0.001
  Li_i36  Li1+  0.160  0.454  0.982  0.001
  Li_i36  Li1+  0.560  0.454  0.182  0.001
  Li_i36  Li1+  0.560  0.254  0.582  0.001
  Li_i36  Li1+  0.960  0.454  0.382  0.001
  Li_i36  Li1+  0.360  0.254  0.982  0.001
  Li_i36  Li1+  0.160  0.454  0.582  0.001
  Li_i36  Li1+  0.360  0.654  0.982  0.001
  Li_i36  Li1+  0.560  0.854  0.182  0.001
  Li_i36  Li1+  0.960  0.654  0.582  0.001
  Li_i36  Li1+  0.960  0.454  0.982  0.001
  Li_i36  Li1+  0.960  0.854  0.782  0.001
  Li_i36  Li1+  0.160  0.454  0.782  0.001
  Li_i36  Li1+  0.960  0.854  0.182  0.001
  Li_i36  Li1+  0.360  0.054  0.582  0.001
  Li_i36  Li1+  0.960  0.054  0.782  0.001
  Li_i36  Li1+  0.360  0.054  0.182  0.001
  Li_i36  Li1+  0.760  0.454  0.382  0.001
  Li_i36  Li1+  0.360  0.454  0.182  0.001
  Li_i36  Li1+  0.760  0.654  0.782  0.001
  Li_i36  Li1+  0.360  0.654  0.782  0.001
  Li_i36  Li1+  0.760  0.854  0.782  0.001
  Li_i36  Li1+  0.360  0.854  0.982  0.001
  Li_i36  Li1+  0.160  0.454  0.182  0.001
  Li_i36  Li1+  0.560  0.654  0.182  0.001
  Li_i36  Li1+  0.560  0.854  0.582  0.001
  Li_i36  Li1+  0.360  0.254  0.182  0.001
  Li_i36  Li1+  0.560  0.054  0.782  0.001
  Li_i36  Li1+  0.960  0.254  0.382  0.001
  Li_i36  Li1+  0.760  0.254  0.982  0.001
  Li_i36  Li1+  0.160  0.854  0.582  0.001
  Li_i36  Li1+  0.360  0.454  0.382  0.001
  Li_i36  Li1+  0.360  0.654  0.582  0.001
  Li_i36  Li1+  0.160  0.054  0.782  0.001
  Li_i36  Li1+  0.560  0.854  0.982  0.001
  Li_i36  Li1+  0.760  0.254  0.582  0.001
  Li_i36  Li1+  0.760  0.654  0.382  0.001
  Li_i36  Li1+  0.360  0.454  0.582  0.001
  Li_i36  Li1+  0.560  0.454  0.582  0.001
  Li_i36  Li1+  0.960  0.254  0.982  0.001
  Li_i36  Li1+  0.760  0.054  0.382  0.001
  Li_i36  Li1+  0.760  0.254  0.182  0.001
  Li_i36  Li1+  0.360  0.654  0.382  0.001
  Li_i36  Li1+  0.960  0.054  0.382  0.001
  Li_i36  Li1+  0.760  0.054  0.782  0.001
  Li_i36  Li1+  0.760  0.854  0.382  0.001
  Li_i36  Li1+  0.560  0.254  0.382  0.001
  Li_i36  Li1+  0.960  0.454  0.582  0.001
  Li_i36  Li1+  0.560  0.254  0.982  0.001
  Li_i36  Li1+  0.160  0.654  0.582  0.001
  Li_i36  Li1+  0.160  0.254  0.982  0.001
  Li_i36  Li1+  0.960  0.854  0.982  0.001
  Li_i37  Li1+  0.750  0.117  0.818  0.001
  Li_i37  Li1+  0.550  0.117  0.618  0.001
  Li_i37  Li1+  0.950  0.917  0.218  0.001
  Li_i37  Li1+  0.750  0.717  0.418  0.001
  Li_i37  Li1+  0.950  0.317  0.418  0.001
  Li_i37  Li1+  0.150  0.717  0.418  0.001
  Li_i37  Li1+  0.350  0.317  0.418  0.001
  Li_i37  Li1+  0.150  0.517  0.218  0.001
  Li_i37  Li1+  0.350  0.917  0.618  0.001
  Li_i37  Li1+  0.150  0.317  0.218  0.001
  Li_i37  Li1+  0.150  0.717  0.018  0.001
  Li_i37  Li1+  0.350  0.117  0.818  0.001
  Li_i37  Li1+  0.150  0.917  0.418  0.001
  Li_i37  Li1+  0.750  0.917  0.418  0.001
  Li_i37  Li1+  0.550  0.917  0.018  0.001
  Li_i37  Li1+  0.950  0.117  0.418  0.001
  Li_i37  Li1+  0.150  0.117  0.818  0.001
  Li_i37  Li1+  0.550  0.317  0.218  0.001
  Li_i37  Li1+  0.950  0.517  0.018  0.001
  Li_i37  Li1+  0.750  0.717  0.018  0.001
  Li_i37  Li1+  0.550  0.717  0.018  0.001
  Li_i37  Li1+  0.350  0.117  0.018  0.001
  Li_i37  Li1+  0.350  0.317  0.618  0.001
  Li_i37  Li1+  0.150  0.717  0.618  0.001
  Li_i37  Li1+  0.550  0.317  0.818  0.001
  Li_i37  Li1+  0.550  0.517  0.418  0.001
  Li_i37  Li1+  0.550  0.117  0.418  0.001
  Li_i37  Li1+  0.950  0.517  0.618  0.001
  Li_i37  Li1+  0.350  0.917  0.418  0.001
  Li_i37  Li1+  0.550  0.917  0.418  0.001
  Li_i37  Li1+  0.750  0.517  0.618  0.001
  Li_i37  Li1+  0.350  0.117  0.418  0.001
  Li_i37  Li1+  0.150  0.517  0.018  0.001
  Li_i37  Li1+  0.950  0.717  0.218  0.001
  Li_i37  Li1+  0.150  0.317  0.818  0.001
  Li_i37  Li1+  0.950  0.317  0.018  0.001
  Li_i37  Li1+  0.950  0.717  0.818  0.001
  Li_i37  Li1+  0.750  0.917  0.018  0.001
  Li_i37  Li1+  0.150  0.917  0.218  0.001
  Li_i37  Li1+  0.150  0.717  0.818  0.001
  Li_i37  Li1+  0.350  0.317  0.818  0.001
  Li_i37  Li1+  0.350  0.917  0.218  0.001
  Li_i37  Li1+  0.950  0.117  0.018  0.001
  Li_i37  Li1+  0.950  0.917  0.418  0.001
  Li_i37  Li1+  0.150  0.517  0.418  0.001
  Li_i37  Li1+  0.750  0.517  0.218  0.001
  Li_i37  Li1+  0.550  0.917  0.818  0.001
  Li_i37  Li1+  0.550  0.717  0.418  0.001
  Li_i37  Li1+  0.350  0.317  0.018  0.001
  Li_i37  Li1+  0.950  0.317  0.618  0.001
  Li_i37  Li1+  0.150  0.917  0.018  0.001
  Li_i37  Li1+  0.150  0.317  0.018  0.001
  Li_i37  Li1+  0.750  0.117  0.218  0.001
  Li_i37  Li1+  0.750  0.317  0.818  0.001
  Li_i37  Li1+  0.550  0.317  0.018  0.001
  Li_i37  Li1+  0.750  0.717  0.618  0.001
  Li_i37  Li1+  0.550  0.117  0.218  0.001
  Li_i37  Li1+  0.150  0.517  0.818  0.001
  Li_i37  Li1+  0.750  0.317  0.418  0.001
  Li_i37  Li1+  0.750  0.117  0.618  0.001
  Li_i37  Li1+  0.750  0.317  0.018  0.001
  Li_i37  Li1+  0.350  0.517  0.018  0.001
  Li_i37  Li1+  0.950  0.117  0.618  0.001
  Li_i37  Li1+  0.750  0.917  0.618  0.001
  Li_i37  Li1+  0.950  0.517  0.218  0.001
  Li_i37  Li1+  0.350  0.917  0.018  0.001
  Li_i37  Li1+  0.550  0.517  0.818  0.001
  Li_i37  Li1+  0.550  0.317  0.618  0.001
  Li_i37  Li1+  0.150  0.917  0.818  0.001
  Li_i37  Li1+  0.550  0.717  0.818  0.001
  Li_i37  Li1+  0.150  0.517  0.618  0.001
  Li_i37  Li1+  0.750  0.717  0.218  0.001
  Li_i37  Li1+  0.950  0.517  0.818  0.001
  Li_i37  Li1+  0.550  0.517  0.218  0.001
  Li_i37  Li1+  0.150  0.717  0.218  0.001
  Li_i37  Li1+  0.950  0.717  0.418  0.001
  Li_i37  Li1+  0.350  0.117  0.618  0.001
  Li_i37  Li1+  0.350  0.517  0.218  0.001
  Li_i37  Li1+  0.350  0.717  0.818  0.001
  Li_i37  Li1+  0.150  0.117  0.218  0.001
  Li_i37  Li1+  0.350  0.317  0.218  0.001
  Li_i37  Li1+  0.950  0.917  0.018  0.001
  Li_i37  Li1+  0.950  0.317  0.218  0.001
  Li_i37  Li1+  0.950  0.917  0.618  0.001
  Li_i37  Li1+  0.550  0.917  0.218  0.001
  Li_i37  Li1+  0.550  0.117  0.018  0.001
  Li_i37  Li1+  0.350  0.517  0.418  0.001
  Li_i37  Li1+  0.550  0.117  0.818  0.001
  Li_i37  Li1+  0.750  0.917  0.218  0.001
  Li_i37  Li1+  0.750  0.517  0.818  0.001
  Li_i37  Li1+  0.350  0.717  0.618  0.001
  Li_i37  Li1+  0.150  0.117  0.418  0.001
  Li_i37  Li1+  0.950  0.117  0.218  0.001
  Li_i37  Li1+  0.150  0.317  0.618  0.001
  Li_i37  Li1+  0.550  0.717  0.218  0.001
  Li_i37  Li1+  0.350  0.117  0.218  0.001
  Li_i37  Li1+  0.350  0.717  0.418  0.001
  Li_i37  Li1+  0.950  0.317  0.818  0.001
  Li_i37  Li1+  0.350  0.517  0.618  0.001
  Li_i37  Li1+  0.550  0.917  0.618  0.001
  Li_i37  Li1+  0.750  0.517  0.418  0.001
  Li_i37  Li1+  0.350  0.717  0.218  0.001
  Li_i37  Li1+  0.550  0.317  0.418  0.001
  Li_i37  Li1+  0.550  0.517  0.618  0.001
  Li_i37  Li1+  0.350  0.917  0.818  0.001
  Li_i37  Li1+  0.350  0.517  0.818  0.001
  Li_i37  Li1+  0.750  0.717  0.818  0.001
  Li_i37  Li1+  0.550  0.517  0.018  0.001
  Li_i37  Li1+  0.950  0.517  0.418  0.001
  Li_i37  Li1+  0.750  0.117  0.018  0.001
  Li_i37  Li1+  0.750  0.517  0.018  0.001
  Li_i37  Li1+  0.350  0.717  0.018  0.001
  Li_i37  Li1+  0.950  0.117  0.818  0.001
  Li_i37  Li1+  0.150  0.317  0.418  0.001
  Li_i37  Li1+  0.750  0.917  0.818  0.001
  Li_i37  Li1+  0.950  0.717  0.018  0.001
  Li_i37  Li1+  0.150  0.117  0.018  0.001
  Li_i37  Li1+  0.750  0.117  0.418  0.001
  Li_i37  Li1+  0.950  0.717  0.618  0.001
  Li_i37  Li1+  0.150  0.917  0.618  0.001
  Li_i37  Li1+  0.750  0.317  0.618  0.001
  Li_i37  Li1+  0.550  0.717  0.618  0.001
  Li_i37  Li1+  0.150  0.117  0.618  0.001
  Li_i37  Li1+  0.750  0.317  0.218  0.001
  Li_i37  Li1+  0.950  0.917  0.818  0.001
  Li_i38  Li1+  0.169  0.750  0.589  0.001
  Li_i38  Li1+  0.769  0.150  0.789  0.001
  Li_i38  Li1+  0.369  0.350  0.189  0.001
  Li_i38  Li1+  0.769  0.950  0.189  0.001
  Li_i38  Li1+  0.969  0.550  0.189  0.001
  Li_i38  Li1+  0.169  0.750  0.189  0.001
  Li_i38  Li1+  0.769  0.350  0.989  0.001
  Li_i38  Li1+  0.769  0.350  0.189  0.001
  Li_i38  Li1+  0.769  0.350  0.589  0.001
  Li_i38  Li1+  0.169  0.550  0.589  0.001
  Li_i38  Li1+  0.569  0.350  0.589  0.001
  Li_i38  Li1+  0.369  0.350  0.989  0.001
  Li_i38  Li1+  0.369  0.950  0.789  0.001
  Li_i38  Li1+  0.169  0.150  0.389  0.001
  Li_i38  Li1+  0.969  0.350  0.189  0.001
  Li_i38  Li1+  0.969  0.150  0.189  0.001
  Li_i38  Li1+  0.969  0.550  0.789  0.001
  Li_i38  Li1+  0.569  0.950  0.389  0.001
  Li_i38  Li1+  0.569  0.150  0.789  0.001
  Li_i38  Li1+  0.569  0.750  0.389  0.001
  Li_i38  Li1+  0.769  0.750  0.789  0.001
  Li_i38  Li1+  0.169  0.350  0.389  0.001
  Li_i38  Li1+  0.569  0.550  0.189  0.001
  Li_i38  Li1+  0.569  0.550  0.789  0.001
  Li_i38  Li1+  0.369  0.150  0.789  0.001
  Li_i38  Li1+  0.969  0.750  0.389  0.001
  Li_i38  Li1+  0.169  0.950  0.789  0.001
  Li_i38  Li1+  0.369  0.150  0.389  0.001
  Li_i38  Li1+  0.169  0.550  0.789  0.001
  Li_i38  Li1+  0.369  0.550  0.189  0.001
  Li_i38  Li1+  0.369  0.950  0.589  0.001
  Li_i38  Li1+  0.969  0.750  0.989  0.001
  Li_i38  Li1+  0.969  0.350  0.789  0.001
  Li_i38  Li1+  0.169  0.750  0.789  0.001
  Li_i38  Li1+  0.769  0.750  0.389  0.001
  Li_i38  Li1+  0.769  0.950  0.789  0.001
  Li_i38  Li1+  0.569  0.950  0.789  0.001
  Li_i38  Li1+  0.369  0.350  0.389  0.001
  Li_i38  Li1+  0.169  0.550  0.989  0.001
  Li_i38  Li1+  0.169  0.350  0.189  0.001
  Li_i38  Li1+  0.969  0.150  0.789  0.001
  Li_i38  Li1+  0.969  0.950  0.589  0.001
  Li_i38  Li1+  0.569  0.150  0.589  0.001
  Li_i38  Li1+  0.569  0.350  0.389  0.001
  Li_i38  Li1+  0.569  0.750  0.789  0.001
  Li_i38  Li1+  0.169  0.950  0.589  0.001
  Li_i38  Li1+  0.369  0.950  0.389  0.001
  Li_i38  Li1+  0.769  0.550  0.989  0.001
  Li_i38  Li1+  0.769  0.150  0.189  0.001
  Li_i38  Li1+  0.369  0.550  0.389  0.001
  Li_i38  Li1+  0.169  0.150  0.189  0.001
  Li_i38  Li1+  0.969  0.550  0.389  0.001
  Li_i38  Li1+  0.169  0.750  0.989  0.001
  Li_i38  Li1+  0.169  0.150  0.789  0.001
  Li_i38  Li1+  0.569  0.350  0.989  0.001
  Li_i38  Li1+  0.769  0.950  0.389  0.001
  Li_i38  Li1+  0.769  0.550  0.589  0.001
  Li_i38  Li1+  0.769  0.150  0.589  0.001
  Li_i38  Li1+  0.369  0.550  0.589  0.001
  Li_i38  Li1+  0.369  0.950  0.189  0.001
  Li_i38  Li1+  0.569  0.750  0.189  0.001
  Li_i38  Li1+  0.969  0.350  0.389  0.001
  Li_i38  Li1+  0.969  0.550  0.989  0.001
  Li_i38  Li1+  0.169  0.950  0.389  0.001
  Li_i38  Li1+  0.769  0.550  0.189  0.001
  Li_i38  Li1+  0.569  0.550  0.589  0.001
  Li_i38  Li1+  0.969  0.150  0.389  0.001
  Li_i38  Li1+  0.769  0.150  0.989  0.001
  Li_i38  Li1+  0.969  0.750  0.589  0.001
  Li_i38  Li1+  0.569  0.950  0.189  0.001
  Li_i38  Li1+  0.769  0.350  0.789  0.001
  Li_i38  Li1+  0.769  0.350  0.389  0.001
  Li_i38  Li1+  0.369  0.150  0.189  0.001
  Li_i38  Li1+  0.769  0.750  0.989  0.001
  Li_i38  Li1+  0.169  0.750  0.389  0.001
  Li_i38  Li1+  0.569  0.150  0.389  0.001
  Li_i38  Li1+  0.369  0.350  0.589  0.001
  Li_i38  Li1+  0.969  0.950  0.189  0.001
  Li_i38  Li1+  0.369  0.750  0.989  0.001
  Li_i38  Li1+  0.369  0.550  0.789  0.001
  Li_i38  Li1+  0.569  0.350  0.189  0.001
  Li_i38  Li1+  0.969  0.350  0.989  0.001
  Li_i38  Li1+  0.969  0.950  0.789  0.001
  Li_i38  Li1+  0.369  0.150  0.989  0.001
  Li_i38  Li1+  0.369  0.750  0.789  0.001
  Li_i38  Li1+  0.369  0.550  0.989  0.001
  Li_i38  Li1+  0.169  0.950  0.189  0.001
  Li_i38  Li1+  0.769  0.950  0.989  0.001
  Li_i38  Li1+  0.369  0.750  0.589  0.001
  Li_i38  Li1+  0.569  0.950  0.589  0.001
  Li_i38  Li1+  0.769  0.750  0.589  0.001
  Li_i38  Li1+  0.969  0.150  0.989  0.001
  Li_i38  Li1+  0.369  0.750  0.389  0.001
  Li_i38  Li1+  0.369  0.750  0.189  0.001
  Li_i38  Li1+  0.569  0.350  0.789  0.001
  Li_i38  Li1+  0.569  0.750  0.589  0.001
  Li_i38  Li1+  0.969  0.550  0.589  0.001
  Li_i38  Li1+  0.569  0.150  0.189  0.001
  Li_i38  Li1+  0.169  0.150  0.589  0.001
  Li_i38  Li1+  0.369  0.150  0.589  0.001
  Li_i38  Li1+  0.169  0.550  0.389  0.001
  Li_i38  Li1+  0.169  0.350  0.989  0.001
  Li_i38  Li1+  0.769  0.750  0.189  0.001
  Li_i38  Li1+  0.569  0.550  0.989  0.001
  Li_i38  Li1+  0.569  0.950  0.989  0.001
  Li_i38  Li1+  0.569  0.550  0.389  0.001
  Li_i38  Li1+  0.969  0.750  0.189  0.001
  Li_i38  Li1+  0.769  0.950  0.589  0.001
  Li_i38  Li1+  0.169  0.550  0.189  0.001
  Li_i38  Li1+  0.969  0.350  0.589  0.001
  Li_i38  Li1+  0.569  0.150  0.989  0.001
  Li_i38  Li1+  0.169  0.150  0.989  0.001
  Li_i38  Li1+  0.969  0.750  0.789  0.001
  Li_i38  Li1+  0.369  0.350  0.789  0.001
  Li_i38  Li1+  0.769  0.550  0.789  0.001
  Li_i38  Li1+  0.369  0.950  0.989  0.001
  Li_i38  Li1+  0.969  0.150  0.589  0.001
  Li_i38  Li1+  0.769  0.150  0.389  0.001
  Li_i38  Li1+  0.169  0.350  0.589  0.001
  Li_i38  Li1+  0.569  0.750  0.989  0.001
  Li_i38  Li1+  0.169  0.950  0.989  0.001
  Li_i38  Li1+  0.169  0.350  0.789  0.001
  Li_i38  Li1+  0.769  0.550  0.389  0.001
  Li_i38  Li1+  0.969  0.950  0.389  0.001
  Li_i38  Li1+  0.969  0.950  0.989  0.001
  Li_i39  Li1+  0.381  0.840  0.851  0.001
  Li_i39  Li1+  0.581  0.240  0.651  0.001
  Li_i39  Li1+  0.381  0.440  0.051  0.001
  Li_i39  Li1+  0.181  0.240  0.451  0.001
  Li_i39  Li1+  0.581  0.040  0.851  0.001
  Li_i39  Li1+  0.981  0.440  0.651  0.001
  Li_i39  Li1+  0.781  0.840  0.651  0.001
  Li_i39  Li1+  0.781  0.440  0.851  0.001
  Li_i39  Li1+  0.181  0.640  0.451  0.001
  Li_i39  Li1+  0.181  0.440  0.651  0.001
  Li_i39  Li1+  0.781  0.040  0.851  0.001
  Li_i39  Li1+  0.181  0.240  0.851  0.001
  Li_i39  Li1+  0.781  0.440  0.451  0.001
  Li_i39  Li1+  0.181  0.440  0.851  0.001
  Li_i39  Li1+  0.981  0.240  0.651  0.001
  Li_i39  Li1+  0.381  0.040  0.851  0.001
  Li_i39  Li1+  0.781  0.240  0.251  0.001
  Li_i39  Li1+  0.981  0.640  0.251  0.001
  Li_i39  Li1+  0.981  0.040  0.651  0.001
  Li_i39  Li1+  0.781  0.440  0.051  0.001
  Li_i39  Li1+  0.581  0.440  0.251  0.001
  Li_i39  Li1+  0.781  0.240  0.651  0.001
  Li_i39  Li1+  0.581  0.640  0.451  0.001
  Li_i39  Li1+  0.381  0.840  0.651  0.001
  Li_i39  Li1+  0.781  0.840  0.251  0.001
  Li_i39  Li1+  0.581  0.840  0.451  0.001
  Li_i39  Li1+  0.981  0.640  0.851  0.001
  Li_i39  Li1+  0.381  0.440  0.251  0.001
  Li_i39  Li1+  0.581  0.440  0.851  0.001
  Li_i39  Li1+  0.381  0.040  0.451  0.001
  Li_i39  Li1+  0.181  0.240  0.251  0.001
  Li_i39  Li1+  0.381  0.240  0.451  0.001
  Li_i39  Li1+  0.181  0.440  0.251  0.001
  Li_i39  Li1+  0.381  0.440  0.451  0.001
  Li_i39  Li1+  0.581  0.040  0.651  0.001
  Li_i39  Li1+  0.581  0.240  0.451  0.001
  Li_i39  Li1+  0.381  0.840  0.451  0.001
  Li_i39  Li1+  0.981  0.440  0.251  0.001
  Li_i39  Li1+  0.781  0.640  0.851  0.001
  Li_i39  Li1+  0.981  0.840  0.451  0.001
  Li_i39  Li1+  0.181  0.840  0.851  0.001
  Li_i39  Li1+  0.981  0.040  0.251  0.001
  Li_i39  Li1+  0.181  0.440  0.051  0.001
  Li_i39  Li1+  0.981  0.240  0.251  0.001
  Li_i39  Li1+  0.581  0.840  0.851  0.001
  Li_i39  Li1+  0.181  0.640  0.651  0.001
  Li_i39  Li1+  0.181  0.240  0.651  0.001
  Li_i39  Li1+  0.581  0.640  0.851  0.001
  Li_i39  Li1+  0.381  0.840  0.251  0.001
  Li_i39  Li1+  0.181  0.040  0.051  0.001
  Li_i39  Li1+  0.381  0.440  0.651  0.001
  Li_i39  Li1+  0.581  0.440  0.051  0.001
  Li_i39  Li1+  0.981  0.440  0.851  0.001
  Li_i39  Li1+  0.781  0.640  0.451  0.001
  Li_i39  Li1+  0.181  0.640  0.251  0.001
  Li_i39  Li1+  0.781  0.040  0.251  0.001
  Li_i39  Li1+  0.181  0.840  0.651  0.001
  Li_i39  Li1+  0.581  0.040  0.451  0.001
  Li_i39  Li1+  0.781  0.840  0.851  0.001
  Li_i39  Li1+  0.581  0.440  0.651  0.001
  Li_i39  Li1+  0.581  0.640  0.251  0.001
  Li_i39  Li1+  0.981  0.640  0.451  0.001
  Li_i39  Li1+  0.381  0.840  0.051  0.001
  Li_i39  Li1+  0.781  0.640  0.051  0.001
  Li_i39  Li1+  0.381  0.440  0.851  0.001
  Li_i39  Li1+  0.981  0.240  0.851  0.001
  Li_i39  Li1+  0.181  0.040  0.251  0.001
  Li_i39  Li1+  0.781  0.040  0.651  0.001
  Li_i39  Li1+  0.581  0.840  0.251  0.001
  Li_i39  Li1+  0.981  0.040  0.851  0.001
  Li_i39  Li1+  0.381  0.240  0.651  0.001
  Li_i39  Li1+  0.781  0.440  0.651  0.001
  Li_i39  Li1+  0.581  0.240  0.251  0.001
  Li_i39  Li1+  0.981  0.840  0.051  0.001
  Li_i39  Li1+  0.381  0.640  0.851  0.001
  Li_i39  Li1+  0.781  0.240  0.051  0.001
  Li_i39  Li1+  0.381  0.640  0.051  0.001
  Li_i39  Li1+  0.781  0.840  0.451  0.001
  Li_i39  Li1+  0.781  0.440  0.251  0.001
  Li_i39  Li1+  0.381  0.640  0.651  0.001
  Li_i39  Li1+  0.781  0.240  0.451  0.001
  Li_i39  Li1+  0.981  0.840  0.651  0.001
  Li_i39  Li1+  0.781  0.240  0.851  0.001
  Li_i39  Li1+  0.381  0.640  0.251  0.001
  Li_i39  Li1+  0.981  0.440  0.451  0.001
  Li_i39  Li1+  0.381  0.640  0.451  0.001
  Li_i39  Li1+  0.181  0.640  0.851  0.001
  Li_i39  Li1+  0.581  0.040  0.251  0.001
  Li_i39  Li1+  0.381  0.240  0.051  0.001
  Li_i39  Li1+  0.181  0.040  0.851  0.001
  Li_i39  Li1+  0.581  0.240  0.851  0.001
  Li_i39  Li1+  0.981  0.240  0.451  0.001
  Li_i39  Li1+  0.981  0.040  0.451  0.001
  Li_i39  Li1+  0.381  0.040  0.251  0.001
  Li_i39  Li1+  0.381  0.040  0.651  0.001
  Li_i39  Li1+  0.781  0.840  0.051  0.001
  Li_i39  Li1+  0.581  0.840  0.651  0.001
  Li_i39  Li1+  0.981  0.640  0.051  0.001
  Li_i39  Li1+  0.581  0.640  0.651  0.001
  Li_i39  Li1+  0.181  0.840  0.451  0.001
  Li_i39  Li1+  0.181  0.040  0.451  0.001
  Li_i39  Li1+  0.181  0.440  0.451  0.001
  Li_i39  Li1+  0.581  0.240  0.051  0.001
  Li_i39  Li1+  0.581  0.440  0.451  0.001
  Li_i39  Li1+  0.381  0.240  0.851  0.001
  Li_i39  Li1+  0.581  0.640  0.051  0.001
  Li_i39  Li1+  0.981  0.640  0.651  0.001
  Li_i39  Li1+  0.181  0.840  0.251  0.001
  Li_i39  Li1+  0.781  0.640  0.651  0.001
  Li_i39  Li1+  0.581  0.040  0.051  0.001
  Li_i39  Li1+  0.781  0.040  0.051  0.001
  Li_i39  Li1+  0.181  0.840  0.051  0.001
  Li_i39  Li1+  0.981  0.040  0.051  0.001
  Li_i39  Li1+  0.981  0.440  0.051  0.001
  Li_i39  Li1+  0.181  0.040  0.651  0.001
  Li_i39  Li1+  0.181  0.240  0.051  0.001
  Li_i39  Li1+  0.381  0.240  0.251  0.001
  Li_i39  Li1+  0.181  0.640  0.051  0.001
  Li_i39  Li1+  0.981  0.240  0.051  0.001
  Li_i39  Li1+  0.581  0.840  0.051  0.001
  Li_i39  Li1+  0.981  0.840  0.251  0.001
  Li_i39  Li1+  0.781  0.640  0.251  0.001
  Li_i39  Li1+  0.381  0.040  0.051  0.001
  Li_i39  Li1+  0.781  0.040  0.451  0.001
  Li_i39  Li1+  0.981  0.840  0.851  0.001
  Li0  Li1+  0.798  0.498  0.186  1.000
  Li0  Li1+  0.598  0.298  0.786  1.000
  Li0  Li1+  0.398  0.098  0.586  1.000
  Li0  Li1+  0.798  0.498  0.386  1.000
  Li0  Li1+  0.398  0.698  0.186  1.000
  Li0  Li1+  0.598  0.298  0.986  1.000
  Li0  Li1+  0.798  0.498  0.586  1.000
  Li0  Li1+  0.798  0.498  0.786  1.000
  Li0  Li1+  0.598  0.498  0.186  1.000
  Li0  Li1+  0.398  0.698  0.386  1.000
  Li0  Li1+  0.198  0.698  0.986  1.000
  Li0  Li1+  0.798  0.498  0.986  1.000
  Li0  Li1+  0.198  0.098  0.186  1.000
  Li0  Li1+  0.398  0.098  0.786  1.000
  Li0  Li1+  0.198  0.098  0.986  1.000
  Li0  Li1+  0.198  0.498  0.786  1.000
  Li0  Li1+  0.798  0.698  0.186  1.000
  Li0  Li1+  0.398  0.698  0.586  1.000
  Li0  Li1+  0.798  0.698  0.386  1.000
  Li0  Li1+  0.198  0.298  0.386  1.000
  Li0  Li1+  0.598  0.498  0.586  1.000
  Li0  Li1+  0.198  0.298  0.986  1.000
  Li0  Li1+  0.798  0.698  0.586  1.000
  Li0  Li1+  0.398  0.098  0.986  1.000
  Li0  Li1+  0.598  0.498  0.786  1.000
  Li0  Li1+  0.798  0.698  0.786  1.000
  Li0  Li1+  0.398  0.698  0.786  1.000
  Li0  Li1+  0.198  0.898  0.186  1.000
  Li0  Li1+  0.798  0.698  0.986  1.000
  Li0  Li1+  0.798  0.898  0.186  1.000
  Li0  Li1+  0.398  0.698  0.986  1.000
  Li0  Li1+  0.398  0.298  0.186  1.000
  Li0  Li1+  0.598  0.698  0.186  1.000
  Li0  Li1+  0.798  0.898  0.386  1.000
  Li0  Li1+  0.198  0.498  0.986  1.000
  Li0  Li1+  0.798  0.898  0.586  1.000
  Li0  Li1+  0.598  0.698  0.386  1.000
  Li0  Li1+  0.398  0.898  0.186  1.000
  Li0  Li1+  0.798  0.898  0.786  1.000
  Li0  Li1+  0.198  0.898  0.386  1.000
  Li0  Li1+  0.398  0.298  0.386  1.000
  Li0  Li1+  0.598  0.698  0.586  1.000
  Li0  Li1+  0.798  0.898  0.986  1.000
  Li0  Li1+  0.198  0.098  0.786  1.000
  Li0  Li1+  0.398  0.898  0.386  1.000
  Li0  Li1+  0.998  0.098  0.186  1.000
  Li0  Li1+  0.598  0.698  0.786  1.000
  Li0  Li1+  0.198  0.098  0.586  1.000
  Li0  Li1+  0.998  0.098  0.386  1.000
  Li0  Li1+  0.198  0.498  0.186  1.000
  Li0  Li1+  0.598  0.698  0.986  1.000
  Li0  Li1+  0.398  0.898  0.586  1.000
  Li0  Li1+  0.398  0.298  0.586  1.000
  Li0  Li1+  0.998  0.098  0.586  1.000
  Li0  Li1+  0.198  0.898  0.586  1.000
  Li0  Li1+  0.998  0.098  0.786  1.000
  Li0  Li1+  0.598  0.898  0.186  1.000
  Li0  Li1+  0.198  0.698  0.186  1.000
  Li0  Li1+  0.398  0.898  0.786  1.000
  Li0  Li1+  0.998  0.098  0.986  1.000
  Li0  Li1+  0.598  0.898  0.386  1.000
  Li0  Li1+  0.998  0.298  0.186  1.000
  Li0  Li1+  0.398  0.298  0.786  1.000
  Li0  Li1+  0.198  0.298  0.586  1.000
  Li0  Li1+  0.998  0.298  0.386  1.000
  Li0  Li1+  0.398  0.898  0.986  1.000
  Li0  Li1+  0.998  0.298  0.586  1.000
  Li0  Li1+  0.598  0.898  0.786  1.000
  Li0  Li1+  0.198  0.898  0.786  1.000
  Li0  Li1+  0.998  0.298  0.786  1.000
  Li0  Li1+  0.598  0.098  0.186  1.000
  Li0  Li1+  0.398  0.298  0.986  1.000
  Li0  Li1+  0.598  0.898  0.986  1.000
  Li0  Li1+  0.198  0.698  0.386  1.000
  Li0  Li1+  0.998  0.498  0.186  1.000
  Li0  Li1+  0.598  0.098  0.386  1.000
  Li0  Li1+  0.798  0.098  0.186  1.000
  Li0  Li1+  0.998  0.498  0.386  1.000
  Li0  Li1+  0.398  0.498  0.186  1.000
  Li0  Li1+  0.198  0.298  0.186  1.000
  Li0  Li1+  0.798  0.098  0.386  1.000
  Li0  Li1+  0.198  0.498  0.386  1.000
  Li0  Li1+  0.998  0.498  0.586  1.000
  Li0  Li1+  0.198  0.898  0.986  1.000
  Li0  Li1+  0.598  0.098  0.586  1.000
  Li0  Li1+  0.998  0.498  0.786  1.000
  Li0  Li1+  0.798  0.098  0.586  1.000
  Li0  Li1+  0.998  0.498  0.986  1.000
  Li0  Li1+  0.398  0.498  0.386  1.000
  Li0  Li1+  0.598  0.098  0.786  1.000
  Li0  Li1+  0.798  0.098  0.786  1.000
  Li0  Li1+  0.998  0.698  0.186  1.000
  Li0  Li1+  0.998  0.698  0.386  1.000
  Li0  Li1+  0.798  0.098  0.986  1.000
  Li0  Li1+  0.598  0.098  0.986  1.000
  Li0  Li1+  0.398  0.098  0.186  1.000
  Li0  Li1+  0.998  0.698  0.586  1.000
  Li0  Li1+  0.798  0.298  0.186  1.000
  Li0  Li1+  0.398  0.498  0.586  1.000
  Li0  Li1+  0.998  0.698  0.786  1.000
  Li0  Li1+  0.598  0.298  0.186  1.000
  Li0  Li1+  0.998  0.698  0.986  1.000
  Li0  Li1+  0.798  0.298  0.386  1.000
  Li0  Li1+  0.198  0.098  0.386  1.000
  Li0  Li1+  0.198  0.298  0.786  1.000
  Li0  Li1+  0.998  0.898  0.186  1.000
  Li0  Li1+  0.798  0.298  0.586  1.000
  Li0  Li1+  0.398  0.498  0.786  1.000
  Li0  Li1+  0.998  0.898  0.386  1.000
  Li0  Li1+  0.598  0.298  0.386  1.000
  Li0  Li1+  0.398  0.098  0.386  1.000
  Li0  Li1+  0.198  0.498  0.586  1.000
  Li0  Li1+  0.798  0.298  0.786  1.000
  Li0  Li1+  0.998  0.898  0.586  1.000
  Li0  Li1+  0.998  0.898  0.786  1.000
  Li0  Li1+  0.598  0.298  0.586  1.000
  Li0  Li1+  0.798  0.298  0.986  1.000
  Li0  Li1+  0.198  0.698  0.786  1.000
  Li0  Li1+  0.998  0.898  0.986  1.000
  Li0  Li1+  0.398  0.498  0.986  1.000
  Li1  Li1+  0.000  0.296  0.287  1.000
  Li1  Li1+  0.200  0.296  0.688  1.000
  Li1  Li1+  0.800  0.296  0.088  1.000
  Li1  Li1+  0.200  0.296  0.088  1.000
  Li1  Li1+  0.600  0.496  0.688  1.000
  Li1  Li1+  -0.000  0.296  0.487  1.000
  Li1  Li1+  0.400  0.696  0.088  1.000
  Li1  Li1+  0.400  0.896  0.487  1.000
  Li1  Li1+  0.200  0.896  0.887  1.000
  Li1  Li1+  0.800  0.296  0.287  1.000
  Li1  Li1+  0.600  0.696  0.088  1.000
  Li1  Li1+  0.600  0.896  0.287  1.000
  Li1  Li1+  0.800  0.296  0.487  1.000
  Li1  Li1+  0.600  0.496  0.088  1.000
  Li1  Li1+  0.000  0.896  0.688  1.000
  Li1  Li1+  0.400  0.896  0.688  1.000
  Li1  Li1+  0.200  0.696  0.487  1.000
  Li1  Li1+  0.600  0.896  0.487  1.000
  Li1  Li1+  0.800  0.296  0.688  1.000
  Li1  Li1+  0.200  0.696  0.088  1.000
  Li1  Li1+  0.200  0.296  0.887  1.000
  Li1  Li1+  0.400  0.696  0.287  1.000
  Li1  Li1+  0.600  0.696  0.287  1.000
  Li1  Li1+  0.400  0.896  0.887  1.000
  Li1  Li1+  0.200  0.896  0.088  1.000
  Li1  Li1+  0.800  0.296  0.887  1.000
  Li1  Li1+  0.000  0.696  0.287  1.000
  Li1  Li1+  0.800  0.496  0.088  1.000
  Li1  Li1+  -0.000  0.696  0.887  1.000
  Li1  Li1+  -0.000  0.096  0.487  1.000
  Li1  Li1+  0.400  0.096  0.287  1.000
  Li1  Li1+  -0.000  0.096  0.688  1.000
  Li1  Li1+  0.600  0.096  0.088  1.000
  Li1  Li1+  0.000  0.896  0.287  1.000
  Li1  Li1+  0.000  0.296  0.088  1.000
  Li1  Li1+  0.800  0.496  0.287  1.000
  Li1  Li1+  0.600  0.896  0.688  1.000
  Li1  Li1+  0.200  0.496  0.088  1.000
  Li1  Li1+  0.000  0.496  0.287  1.000
  Li1  Li1+  0.200  0.696  0.287  1.000
  Li1  Li1+  0.400  0.496  0.487  1.000
  Li1  Li1+  0.600  0.096  0.287  1.000
  Li1  Li1+  0.200  0.296  0.287  1.000
  Li1  Li1+  0.400  0.696  0.487  1.000
  Li1  Li1+  0.800  0.496  0.487  1.000
  Li1  Li1+  0.200  0.096  0.487  1.000
  Li1  Li1+  0.000  0.896  0.887  1.000
  Li1  Li1+  -0.000  0.296  0.887  1.000
  Li1  Li1+  0.400  0.096  0.487  1.000
  Li1  Li1+  0.600  0.896  0.887  1.000
  Li1  Li1+  0.800  0.496  0.688  1.000
  Li1  Li1+  0.400  0.296  0.887  1.000
  Li1  Li1+  0.600  0.096  0.487  1.000
  Li1  Li1+  0.600  0.696  0.487  1.000
  Li1  Li1+  0.800  0.496  0.887  1.000
  Li1  Li1+  0.200  0.896  0.287  1.000
  Li1  Li1+  0.200  0.496  0.287  1.000
  Li1  Li1+  0.600  0.496  0.887  1.000
  Li1  Li1+  0.400  0.096  0.688  1.000
  Li1  Li1+  0.800  0.096  0.088  1.000
  Li1  Li1+  0.600  0.096  0.688  1.000
  Li1  Li1+  0.200  0.096  0.887  1.000
  Li1  Li1+  0.800  0.696  0.088  1.000
  Li1  Li1+  0.400  0.696  0.688  1.000
  Li1  Li1+  0.800  0.696  0.287  1.000
  Li1  Li1+  0.400  0.296  0.688  1.000
  Li1  Li1+  0.600  0.096  0.887  1.000
  Li1  Li1+  0.400  0.496  0.688  1.000
  Li1  Li1+  0.000  0.096  0.287  1.000
  Li1  Li1+  0.200  0.096  0.088  1.000
  Li1  Li1+  0.000  0.696  0.487  1.000
  Li1  Li1+  0.400  0.096  0.887  1.000
  Li1  Li1+  0.000  0.496  0.088  1.000
  Li1  Li1+  0.800  0.096  0.287  1.000
  Li1  Li1+  0.800  0.696  0.487  1.000
  Li1  Li1+  0.200  0.096  0.688  1.000
  Li1  Li1+  0.200  0.496  0.487  1.000
  Li1  Li1+  0.600  0.296  0.088  1.000
  Li1  Li1+  0.600  0.696  0.688  1.000
  Li1  Li1+  0.400  0.696  0.887  1.000
  Li1  Li1+  0.800  0.696  0.688  1.000
  Li1  Li1+  0.600  0.496  0.487  1.000
  Li1  Li1+  0.400  0.296  0.088  1.000
  Li1  Li1+  0.200  0.896  0.487  1.000
  Li1  Li1+  0.800  0.696  0.887  1.000
  Li1  Li1+  0.200  0.696  0.688  1.000
  Li1  Li1+  0.600  0.296  0.287  1.000
  Li1  Li1+  0.200  0.296  0.487  1.000
  Li1  Li1+  -0.000  0.296  0.688  1.000
  Li1  Li1+  0.600  0.496  0.287  1.000
  Li1  Li1+  0.800  0.096  0.487  1.000
  Li1  Li1+  0.800  0.896  0.088  1.000
  Li1  Li1+  -0.000  0.896  0.088  1.000
  Li1  Li1+  0.600  0.296  0.487  1.000
  Li1  Li1+  0.000  0.896  0.487  1.000
  Li1  Li1+  0.200  0.496  0.688  1.000
  Li1  Li1+  -0.000  0.096  0.887  1.000
  Li1  Li1+  0.400  0.296  0.287  1.000
  Li1  Li1+  0.800  0.096  0.688  1.000
  Li1  Li1+  0.400  0.896  0.088  1.000
  Li1  Li1+  0.000  0.496  0.487  1.000
  Li1  Li1+  0.200  0.096  0.287  1.000
  Li1  Li1+  0.600  0.696  0.887  1.000
  Li1  Li1+  0.400  0.496  0.287  1.000
  Li1  Li1+  0.600  0.296  0.688  1.000
  Li1  Li1+  0.800  0.896  0.487  1.000
  Li1  Li1+  0.000  0.696  0.088  1.000
  Li1  Li1+  0.600  0.896  0.088  1.000
  Li1  Li1+  0.800  0.896  0.688  1.000
  Li1  Li1+  0.200  0.896  0.688  1.000
  Li1  Li1+  0.400  0.296  0.487  1.000
  Li1  Li1+  -0.000  0.496  0.688  1.000
  Li1  Li1+  -0.000  0.696  0.688  1.000
  Li1  Li1+  0.600  0.296  0.887  1.000
  Li1  Li1+  0.800  0.096  0.887  1.000
  Li1  Li1+  0.200  0.696  0.887  1.000
  Li1  Li1+  0.800  0.896  0.887  1.000
  Li1  Li1+  0.000  0.096  0.088  1.000
  Li1  Li1+  0.200  0.496  0.887  1.000
  Li1  Li1+  0.400  0.896  0.287  1.000
  Li2  Li1+  0.900  0.196  0.513  1.000
  Li2  Li1+  0.900  0.596  0.312  1.000
  Li2  Li1+  0.300  0.996  0.513  1.000
  Li2  Li1+  0.100  0.596  0.513  1.000
  Li2  Li1+  0.300  0.396  0.513  1.000
  Li2  Li1+  0.500  0.596  0.113  1.000
  Li2  Li1+  0.700  0.796  0.513  1.000
  Li2  Li1+  0.300  0.596  0.912  1.000
  Li2  Li1+  0.700  0.996  0.513  1.000
  Li2  Li1+  0.700  0.596  0.113  1.000
  Li2  Li1+  0.300  0.196  0.712  1.000
  Li2  Li1+  0.900  0.596  0.513  1.000
  Li2  Li1+  0.900  0.196  0.712  1.000
  Li2  Li1+  0.300  0.596  0.113  1.000
  Li2  Li1+  0.500  0.796  0.312  1.000
  Li2  Li1+  0.100  0.796  0.312  1.000
  Li2  Li1+  0.500  0.996  0.113  1.000
  Li2  Li1+  0.500  0.596  0.312  1.000
  Li2  Li1+  0.500  0.196  0.513  1.000
  Li2  Li1+  0.700  0.796  0.113  1.000
  Li2  Li1+  0.500  0.596  0.712  1.000
  Li2  Li1+  0.900  0.596  0.712  1.000
  Li2  Li1+  0.100  0.996  0.912  1.000
  Li2  Li1+  0.700  0.196  0.513  1.000
  Li2  Li1+  0.100  0.796  0.912  1.000
  Li2  Li1+  0.700  0.796  0.712  1.000
  Li2  Li1+  0.900  0.596  0.912  1.000
  Li2  Li1+  0.900  0.196  0.912  1.000
  Li2  Li1+  0.100  0.996  0.513  1.000
  Li2  Li1+  0.300  0.196  0.912  1.000
  Li2  Li1+  0.300  0.996  0.113  1.000
  Li2  Li1+  0.300  0.996  0.712  1.000
  Li2  Li1+  0.700  0.996  0.712  1.000
  Li2  Li1+  0.100  0.596  0.312  1.000
  Li2  Li1+  0.300  0.196  0.513  1.000
  Li2  Li1+  0.500  0.996  0.312  1.000
  Li2  Li1+  0.700  0.196  0.712  1.000
  Li2  Li1+  0.900  0.796  0.113  1.000
  Li2  Li1+  0.500  0.196  0.712  1.000
  Li2  Li1+  0.300  0.596  0.312  1.000
  Li2  Li1+  0.500  0.396  0.912  1.000
  Li2  Li1+  0.300  0.796  0.712  1.000
  Li2  Li1+  0.700  0.596  0.513  1.000
  Li2  Li1+  0.100  0.596  0.113  1.000
  Li2  Li1+  0.100  0.196  0.513  1.000
  Li2  Li1+  0.900  0.396  0.113  1.000
  Li2  Li1+  0.900  0.796  0.312  1.000
  Li2  Li1+  0.100  0.596  0.912  1.000
  Li2  Li1+  0.100  0.796  0.113  1.000
  Li2  Li1+  0.300  0.796  0.113  1.000
  Li2  Li1+  0.700  0.196  0.912  1.000
  Li2  Li1+  0.700  0.796  0.912  1.000
  Li2  Li1+  0.500  0.796  0.513  1.000
  Li2  Li1+  0.500  0.596  0.912  1.000
  Li2  Li1+  0.700  0.996  0.912  1.000
  Li2  Li1+  0.900  0.796  0.513  1.000
  Li2  Li1+  0.500  0.196  0.912  1.000
  Li2  Li1+  0.300  0.396  0.712  1.000
  Li2  Li1+  0.100  0.196  0.312  1.000
  Li2  Li1+  0.900  0.396  0.312  1.000
  Li2  Li1+  0.500  0.996  0.513  1.000
  Li2  Li1+  0.300  0.996  0.912  1.000
  Li2  Li1+  0.100  0.396  0.912  1.000
  Li2  Li1+  0.700  0.396  0.113  1.000
  Li2  Li1+  0.900  0.796  0.712  1.000
  Li2  Li1+  0.300  0.196  0.113  1.000
  Li2  Li1+  0.100  0.196  0.113  1.000
  Li2  Li1+  0.100  0.396  0.113  1.000
  Li2  Li1+  0.300  0.596  0.513  1.000
  Li2  Li1+  0.700  0.596  0.312  1.000
  Li2  Li1+  0.300  0.396  0.312  1.000
  Li2  Li1+  0.900  0.396  0.513  1.000
  Li2  Li1+  0.100  0.996  0.312  1.000
  Li2  Li1+  0.100  0.796  0.712  1.000
  Li2  Li1+  0.700  0.596  0.912  1.000
  Li2  Li1+  0.900  0.796  0.912  1.000
  Li2  Li1+  0.100  0.396  0.712  1.000
  Li2  Li1+  0.100  0.796  0.513  1.000
  Li2  Li1+  0.500  0.996  0.712  1.000
  Li2  Li1+  0.700  0.796  0.312  1.000
  Li2  Li1+  0.700  0.396  0.312  1.000
  Li2  Li1+  0.500  0.396  0.113  1.000
  Li2  Li1+  0.300  0.996  0.312  1.000
  Li2  Li1+  0.900  0.196  0.113  1.000
  Li2  Li1+  0.700  0.996  0.113  1.000
  Li2  Li1+  0.900  0.396  0.712  1.000
  Li2  Li1+  0.500  0.796  0.712  1.000
  Li2  Li1+  0.500  0.196  0.113  1.000
  Li2  Li1+  0.500  0.596  0.513  1.000
  Li2  Li1+  0.300  0.796  0.513  1.000
  Li2  Li1+  0.700  0.396  0.513  1.000
  Li2  Li1+  0.100  0.996  0.712  1.000
  Li2  Li1+  0.300  0.396  0.912  1.000
  Li2  Li1+  0.900  0.396  0.912  1.000
  Li2  Li1+  0.900  0.996  0.312  1.000
  Li2  Li1+  0.500  0.996  0.912  1.000
  Li2  Li1+  0.100  0.396  0.513  1.000
  Li2  Li1+  0.500  0.396  0.312  1.000
  Li2  Li1+  0.300  0.796  0.312  1.000
  Li2  Li1+  0.100  0.196  0.712  1.000
  Li2  Li1+  0.100  0.396  0.312  1.000
  Li2  Li1+  0.900  0.196  0.312  1.000
  Li2  Li1+  0.900  0.996  0.513  1.000
  Li2  Li1+  0.700  0.396  0.712  1.000
  Li2  Li1+  0.300  0.196  0.312  1.000
  Li2  Li1+  0.500  0.396  0.712  1.000
  Li2  Li1+  0.700  0.596  0.712  1.000
  Li2  Li1+  0.300  0.796  0.912  1.000
  Li2  Li1+  0.500  0.796  0.113  1.000
  Li2  Li1+  0.900  0.996  0.712  1.000
  Li2  Li1+  0.900  0.596  0.113  1.000
  Li2  Li1+  0.700  0.996  0.312  1.000
  Li2  Li1+  0.100  0.596  0.712  1.000
  Li2  Li1+  0.700  0.196  0.113  1.000
  Li2  Li1+  0.500  0.396  0.513  1.000
  Li2  Li1+  0.700  0.396  0.912  1.000
  Li2  Li1+  0.300  0.396  0.113  1.000
  Li2  Li1+  0.100  0.196  0.912  1.000
  Li2  Li1+  0.500  0.196  0.312  1.000
  Li2  Li1+  0.500  0.796  0.912  1.000
  Li2  Li1+  0.900  0.996  0.912  1.000
  Li3  Li1+  0.898  0.200  0.412  1.000
  Li3  Li1+  0.298  0.600  0.212  1.000
  Li3  Li1+  0.498  0.600  0.812  1.000
  Li3  Li1+  0.298  0.800  0.012  1.000
  Li3  Li1+  0.298  0.600  0.012  1.000
  Li3  Li1+  0.498  0.800  0.613  1.000
  Li3  Li1+  0.698  0.000  0.613  1.000
  Li3  Li1+  0.498  0.000  0.613  1.000
  Li3  Li1+  0.898  -0.000  0.412  1.000
  Li3  Li1+  0.898  0.600  0.012  1.000
  Li3  Li1+  0.298  0.800  0.412  1.000
  Li3  Li1+  0.698  0.600  0.412  1.000
  Li3  Li1+  0.098  -0.000  0.412  1.000
  Li3  Li1+  0.298  0.400  0.212  1.000
  Li3  Li1+  0.698  0.800  0.613  1.000
  Li3  Li1+  0.298  0.200  0.412  1.000
  Li3  Li1+  0.298  -0.000  0.412  1.000
  Li3  Li1+  0.898  0.200  0.613  1.000
  Li3  Li1+  0.098  0.400  0.812  1.000
  Li3  Li1+  0.498  -0.000  0.012  1.000
  Li3  Li1+  0.898  0.600  0.212  1.000
  Li3  Li1+  0.098  0.000  0.613  1.000
  Li3  Li1+  0.698  0.800  0.012  1.000
  Li3  Li1+  0.098  0.200  0.012  1.000
  Li3  Li1+  0.298  0.400  0.812  1.000
  Li3  Li1+  0.698  0.400  0.212  1.000
  Li3  Li1+  0.698  0.000  0.812  1.000
  Li3  Li1+  0.498  0.200  0.812  1.000
  Li3  Li1+  0.098  0.800  0.613  1.000
  Li3  Li1+  0.698  0.400  0.412  1.000
  Li3  Li1+  0.298  0.200  0.812  1.000
  Li3  Li1+  0.098  0.200  0.412  1.000
  Li3  Li1+  0.698  0.400  0.613  1.000
  Li3  Li1+  0.898  0.600  0.412  1.000
  Li3  Li1+  0.898  0.200  0.812  1.000
  Li3  Li1+  0.498  0.000  0.812  1.000
  Li3  Li1+  0.898  0.000  0.613  1.000
  Li3  Li1+  0.498  0.800  0.812  1.000
  Li3  Li1+  0.498  0.400  0.613  1.000
  Li3  Li1+  0.498  0.600  0.412  1.000
  Li3  Li1+  0.498  0.800  0.012  1.000
  Li3  Li1+  0.298  0.600  0.812  1.000
  Li3  Li1+  0.698  0.400  0.012  1.000
  Li3  Li1+  0.698  0.200  0.012  1.000
  Li3  Li1+  0.698  0.800  0.812  1.000
  Li3  Li1+  0.898  0.600  0.613  1.000
  Li3  Li1+  0.698  0.600  0.212  1.000
  Li3  Li1+  0.298  -0.000  0.012  1.000
  Li3  Li1+  0.298  0.000  0.812  1.000
  Li3  Li1+  0.498  0.600  0.012  1.000
  Li3  Li1+  0.298  0.400  0.412  1.000
  Li3  Li1+  0.898  0.400  0.012  1.000
  Li3  Li1+  0.098  0.800  0.412  1.000
  Li3  Li1+  0.898  0.000  0.812  1.000
  Li3  Li1+  0.298  0.200  0.212  1.000
  Li3  Li1+  0.098  0.800  0.212  1.000
  Li3  Li1+  0.698  -0.000  0.012  1.000
  Li3  Li1+  0.698  0.600  0.613  1.000
  Li3  Li1+  0.498  0.000  0.212  1.000
  Li3  Li1+  0.098  0.600  0.412  1.000
  Li3  Li1+  0.898  0.600  0.812  1.000
  Li3  Li1+  0.698  0.800  0.212  1.000
  Li3  Li1+  0.298  0.800  0.613  1.000
  Li3  Li1+  0.298  0.000  0.613  1.000
  Li3  Li1+  0.098  0.400  0.012  1.000
  Li3  Li1+  0.098  0.400  0.613  1.000
  Li3  Li1+  0.498  0.200  0.012  1.000
  Li3  Li1+  0.698  0.200  0.212  1.000
  Li3  Li1+  0.898  0.400  0.212  1.000
  Li3  Li1+  0.498  0.800  0.212  1.000
  Li3  Li1+  0.298  0.200  0.012  1.000
  Li3  Li1+  0.298  0.600  0.412  1.000
  Li3  Li1+  0.898  0.800  0.012  1.000
  Li3  Li1+  0.298  0.800  0.212  1.000
  Li3  Li1+  0.898  -0.000  0.012  1.000
  Li3  Li1+  0.498  0.400  0.412  1.000
  Li3  Li1+  0.298  0.600  0.613  1.000
  Li3  Li1+  0.898  0.200  0.012  1.000
  Li3  Li1+  0.698  0.200  0.412  1.000
  Li3  Li1+  0.498  0.400  0.012  1.000
  Li3  Li1+  0.098  0.600  0.012  1.000
  Li3  Li1+  0.698  0.000  0.212  1.000
  Li3  Li1+  0.898  0.400  0.412  1.000
  Li3  Li1+  0.298  0.400  0.012  1.000
  Li3  Li1+  0.498  0.600  0.613  1.000
  Li3  Li1+  0.098  0.600  0.212  1.000
  Li3  Li1+  0.498  0.200  0.212  1.000
  Li3  Li1+  0.498  0.400  0.212  1.000
  Li3  Li1+  0.698  0.400  0.812  1.000
  Li3  Li1+  0.298  0.400  0.613  1.000
  Li3  Li1+  0.298  0.200  0.613  1.000
  Li3  Li1+  0.098  0.000  0.212  1.000
  Li3  Li1+  0.698  0.800  0.412  1.000
  Li3  Li1+  0.498  -0.000  0.412  1.000
  Li3  Li1+  0.898  0.800  0.412  1.000
  Li3  Li1+  0.698  0.600  0.812  1.000
  Li3  Li1+  0.698  0.200  0.613  1.000
  Li3  Li1+  0.698  0.600  0.012  1.000
  Li3  Li1+  0.298  0.000  0.212  1.000
  Li3  Li1+  0.898  0.000  0.212  1.000
  Li3  Li1+  0.898  0.400  0.613  1.000
  Li3  Li1+  0.098  0.200  0.812  1.000
  Li3  Li1+  0.898  0.200  0.212  1.000
  Li3  Li1+  0.098  0.800  0.812  1.000
  Li3  Li1+  0.898  0.800  0.613  1.000
  Li3  Li1+  0.098  -0.000  0.012  1.000
  Li3  Li1+  0.498  0.600  0.212  1.000
  Li3  Li1+  0.698  -0.000  0.412  1.000
  Li3  Li1+  0.498  0.800  0.412  1.000
  Li3  Li1+  0.498  0.400  0.812  1.000
  Li3  Li1+  0.498  0.200  0.412  1.000
  Li3  Li1+  0.698  0.200  0.812  1.000
  Li3  Li1+  0.298  0.800  0.812  1.000
  Li3  Li1+  0.898  0.400  0.812  1.000
  Li3  Li1+  0.498  0.200  0.613  1.000
  Li3  Li1+  0.098  0.600  0.812  1.000
  Li3  Li1+  0.098  0.200  0.212  1.000
  Li3  Li1+  0.098  0.800  0.012  1.000
  Li3  Li1+  0.098  0.200  0.613  1.000
  Li3  Li1+  0.098  0.400  0.212  1.000
  Li3  Li1+  0.098  0.400  0.412  1.000
  Li4  Li1+  0.452  0.656  0.032  1.000
  Li4  Li1+  0.052  0.456  0.632  1.000
  Li4  Li1+  0.252  0.656  0.632  1.000
  Li4  Li1+  0.652  0.456  0.032  1.000
  Li4  Li1+  0.452  0.056  0.832  1.000
  Li4  Li1+  0.852  0.656  0.432  1.000
  Li4  Li1+  0.052  0.656  0.232  1.000
  Li4  Li1+  0.852  0.456  0.232  1.000
  Li4  Li1+  0.452  0.656  0.432  1.000
  Li4  Li1+  0.252  0.856  0.432  1.000
  Li4  Li1+  0.252  0.056  0.032  1.000
  Li4  Li1+  0.852  0.056  0.432  1.000
  Li4  Li1+  0.852  0.256  0.232  1.000
  Li4  Li1+  0.052  0.656  0.832  1.000
  Li4  Li1+  0.452  0.856  0.432  1.000
  Li4  Li1+  0.652  0.256  0.032  1.000
  Li4  Li1+  0.252  0.256  0.032  1.000
  Li4  Li1+  0.252  0.456  0.032  1.000
  Li4  Li1+  0.852  0.656  0.632  1.000
  Li4  Li1+  0.052  0.056  0.832  1.000
  Li4  Li1+  0.252  0.256  0.432  1.000
  Li4  Li1+  0.052  0.656  0.432  1.000
  Li4  Li1+  0.252  0.856  0.832  1.000
  Li4  Li1+  0.252  0.456  0.432  1.000
  Li4  Li1+  0.052  0.856  0.232  1.000
  Li4  Li1+  0.652  0.856  0.232  1.000
  Li4  Li1+  0.652  0.056  0.232  1.000
  Li4  Li1+  0.852  0.456  0.432  1.000
  Li4  Li1+  0.652  0.456  0.832  1.000
  Li4  Li1+  0.652  0.856  0.832  1.000
  Li4  Li1+  0.252  0.256  0.232  1.000
  Li4  Li1+  0.252  0.656  0.232  1.000
  Li4  Li1+  0.052  0.256  0.432  1.000
  Li4  Li1+  0.852  0.256  0.432  1.000
  Li4  Li1+  0.052  0.056  0.232  1.000
  Li4  Li1+  0.652  0.656  0.432  1.000
  Li4  Li1+  0.852  0.656  0.832  1.000
  Li4  Li1+  0.052  0.456  0.032  1.000
  Li4  Li1+  0.452  0.056  0.432  1.000
  Li4  Li1+  0.652  0.656  0.832  1.000
  Li4  Li1+  0.852  0.056  0.632  1.000
  Li4  Li1+  0.452  0.456  0.232  1.000
  Li4  Li1+  0.452  0.256  0.032  1.000
  Li4  Li1+  0.652  0.256  0.232  1.000
  Li4  Li1+  0.452  0.856  0.632  1.000
  Li4  Li1+  0.852  0.456  0.632  1.000
  Li4  Li1+  0.652  0.656  0.232  1.000
  Li4  Li1+  0.452  0.856  0.032  1.000
  Li4  Li1+  0.052  0.856  0.032  1.000
  Li4  Li1+  0.452  0.456  0.832  1.000
  Li4  Li1+  0.252  0.856  0.232  1.000
  Li4  Li1+  0.052  0.456  0.232  1.000
  Li4  Li1+  0.852  0.256  0.632  1.000
  Li4  Li1+  0.852  0.856  0.032  1.000
  Li4  Li1+  0.652  0.056  0.432  1.000
  Li4  Li1+  0.652  0.456  0.632  1.000
  Li4  Li1+  0.052  0.856  0.432  1.000
  Li4  Li1+  0.652  0.856  0.432  1.000
  Li4  Li1+  0.652  0.256  0.432  1.000
  Li4  Li1+  0.052  0.856  0.632  1.000
  Li4  Li1+  0.452  0.256  0.832  1.000
  Li4  Li1+  0.252  0.256  0.832  1.000
  Li4  Li1+  0.852  0.456  0.832  1.000
  Li4  Li1+  0.052  0.456  0.832  1.000
  Li4  Li1+  0.252  0.056  0.432  1.000
  Li4  Li1+  0.852  0.856  0.232  1.000
  Li4  Li1+  0.852  0.056  0.032  1.000
  Li4  Li1+  0.252  0.856  0.632  1.000
  Li4  Li1+  0.252  0.056  0.832  1.000
  Li4  Li1+  0.452  0.256  0.232  1.000
  Li4  Li1+  0.252  0.456  0.632  1.000
  Li4  Li1+  0.452  0.456  0.632  1.000
  Li4  Li1+  0.452  0.656  0.232  1.000
  Li4  Li1+  0.652  0.656  0.032  1.000
  Li4  Li1+  0.852  0.256  0.832  1.000
  Li4  Li1+  0.052  0.256  0.032  1.000
  Li4  Li1+  0.052  0.056  0.632  1.000
  Li4  Li1+  0.452  0.056  0.632  1.000
  Li4  Li1+  0.452  0.856  0.832  1.000
  Li4  Li1+  0.452  0.656  0.632  1.000
  Li4  Li1+  0.852  0.856  0.432  1.000
  Li4  Li1+  0.252  0.056  0.232  1.000
  Li4  Li1+  0.652  0.256  0.632  1.000
  Li4  Li1+  0.252  0.456  0.232  1.000
  Li4  Li1+  0.052  0.256  0.632  1.000
  Li4  Li1+  0.852  0.656  0.032  1.000
  Li4  Li1+  0.052  0.256  0.232  1.000
  Li4  Li1+  0.652  0.456  0.432  1.000
  Li4  Li1+  0.252  0.856  0.032  1.000
  Li4  Li1+  0.452  0.856  0.232  1.000
  Li4  Li1+  0.052  0.656  0.032  1.000
  Li4  Li1+  0.652  0.856  0.032  1.000
  Li4  Li1+  0.252  0.656  0.432  1.000
  Li4  Li1+  0.052  0.456  0.432  1.000
  Li4  Li1+  0.452  0.456  0.432  1.000
  Li4  Li1+  0.852  0.856  0.632  1.000
  Li4  Li1+  0.652  0.656  0.632  1.000
  Li4  Li1+  0.452  0.456  0.032  1.000
  Li4  Li1+  0.052  0.056  0.032  1.000
  Li4  Li1+  0.852  0.656  0.232  1.000
  Li4  Li1+  0.052  0.256  0.832  1.000
  Li4  Li1+  0.452  0.256  0.432  1.000
  Li4  Li1+  0.852  0.456  0.032  1.000
  Li4  Li1+  0.652  0.256  0.832  1.000
  Li4  Li1+  0.652  0.856  0.632  1.000
  Li4  Li1+  0.252  0.056  0.632  1.000
  Li4  Li1+  0.852  0.256  0.032  1.000
  Li4  Li1+  0.252  0.656  0.832  1.000
  Li4  Li1+  0.652  0.456  0.232  1.000
  Li4  Li1+  0.652  0.056  0.832  1.000
  Li4  Li1+  0.652  0.056  0.032  1.000
  Li4  Li1+  0.852  0.856  0.832  1.000
  Li4  Li1+  0.452  0.256  0.632  1.000
  Li4  Li1+  0.452  0.056  0.232  1.000
  Li4  Li1+  0.252  0.256  0.632  1.000
  Li4  Li1+  0.252  0.456  0.832  1.000
  Li4  Li1+  0.452  0.656  0.832  1.000
  Li4  Li1+  0.052  0.656  0.632  1.000
  Li5  Li1+  0.546  0.548  0.847  1.000
  Li5  Li1+  0.946  0.148  0.247  1.000
  Li5  Li1+  0.346  0.348  0.247  1.000
  Li5  Li1+  0.546  0.948  0.247  1.000
  Li5  Li1+  0.146  0.348  0.247  1.000
  Li5  Li1+  0.146  0.148  0.647  1.000
  Li5  Li1+  0.346  0.348  0.447  1.000
  Li5  Li1+  0.946  0.548  0.647  1.000
  Li5  Li1+  0.746  0.548  0.447  1.000
  Li5  Li1+  0.546  0.748  0.447  1.000
  Li5  Li1+  0.546  0.348  0.047  1.000
  Li5  Li1+  0.146  0.348  0.047  1.000
  Li5  Li1+  0.746  0.148  0.447  1.000
  Li5  Li1+  0.346  0.948  0.447  1.000
  Li5  Li1+  0.546  0.948  0.847  1.000
  Li5  Li1+  0.946  0.748  0.847  1.000
  Li5  Li1+  0.146  0.148  0.447  1.000
  Li5  Li1+  0.346  0.348  0.647  1.000
  Li5  Li1+  0.746  0.348  0.247  1.000
  Li5  Li1+  0.946  0.348  0.847  1.000
  Li5  Li1+  0.746  0.748  0.647  1.000
  Li5  Li1+  0.346  0.748  0.647  1.000
  Li5  Li1+  0.546  0.548  0.247  1.000
  Li5  Li1+  0.946  0.348  0.047  1.000
  Li5  Li1+  0.346  0.148  0.447  1.000
  Li5  Li1+  0.746  0.548  0.847  1.000
  Li5  Li1+  0.946  0.148  0.447  1.000
  Li5  Li1+  0.546  0.548  0.047  1.000
  Li5  Li1+  0.946  0.548  0.847  1.000
  Li5  Li1+  0.146  0.948  0.047  1.000
  Li5  Li1+  0.146  0.148  0.847  1.000
  Li5  Li1+  0.146  0.348  0.847  1.000
  Li5  Li1+  0.746  0.948  0.447  1.000
  Li5  Li1+  0.546  0.748  0.247  1.000
  Li5  Li1+  0.346  0.748  0.447  1.000
  Li5  Li1+  0.746  0.948  0.047  1.000
  Li5  Li1+  0.946  0.948  0.047  1.000
  Li5  Li1+  0.146  0.748  0.247  1.000
  Li5  Li1+  0.346  0.348  0.047  1.000
  Li5  Li1+  0.746  0.148  0.647  1.000
  Li5  Li1+  0.146  0.548  0.447  1.000
  Li5  Li1+  0.346  0.948  0.247  1.000
  Li5  Li1+  0.746  0.348  0.447  1.000
  Li5  Li1+  0.346  0.948  0.047  1.000
  Li5  Li1+  0.946  0.548  0.047  1.000
  Li5  Li1+  0.346  0.148  0.247  1.000
  Li5  Li1+  0.946  0.748  0.047  1.000
  Li5  Li1+  0.546  0.348  0.247  1.000
  Li5  Li1+  0.546  0.148  0.247  1.000
  Li5  Li1+  0.946  0.948  0.247  1.000
  Li5  Li1+  0.346  0.748  0.847  1.000
  Li5  Li1+  0.346  0.948  0.847  1.000
  Li5  Li1+  0.546  0.948  0.447  1.000
  Li5  Li1+  0.146  0.548  0.247  1.000
  Li5  Li1+  0.946  0.348  0.247  1.000
  Li5  Li1+  0.146  0.948  0.447  1.000
  Li5  Li1+  0.746  0.148  0.047  1.000
  Li5  Li1+  0.146  0.748  0.047  1.000
  Li5  Li1+  0.146  0.748  0.847  1.000
  Li5  Li1+  0.746  0.748  0.447  1.000
  Li5  Li1+  0.546  0.948  0.047  1.000
  Li5  Li1+  0.946  0.148  0.647  1.000
  Li5  Li1+  0.346  0.148  0.847  1.000
  Li5  Li1+  0.546  0.348  0.847  1.000
  Li5  Li1+  0.746  0.748  0.247  1.000
  Li5  Li1+  0.146  0.748  0.447  1.000
  Li5  Li1+  0.746  0.348  0.647  1.000
  Li5  Li1+  0.946  0.748  0.247  1.000
  Li5  Li1+  0.946  0.948  0.447  1.000
  Li5  Li1+  0.146  0.148  0.247  1.000
  Li5  Li1+  0.946  0.148  0.047  1.000
  Li5  Li1+  0.746  0.148  0.847  1.000
  Li5  Li1+  0.346  0.148  0.047  1.000
  Li5  Li1+  0.546  0.748  0.647  1.000
  Li5  Li1+  0.946  0.548  0.247  1.000
  Li5  Li1+  0.346  0.548  0.047  1.000
  Li5  Li1+  0.546  0.348  0.647  1.000
  Li5  Li1+  0.746  0.748  0.047  1.000
  Li5  Li1+  0.746  0.548  0.247  1.000
  Li5  Li1+  0.546  0.748  0.047  1.000
  Li5  Li1+  0.146  0.548  0.047  1.000
  Li5  Li1+  0.146  0.748  0.647  1.000
  Li5  Li1+  0.146  0.948  0.247  1.000
  Li5  Li1+  0.546  0.348  0.447  1.000
  Li5  Li1+  0.946  0.948  0.647  1.000
  Li5  Li1+  0.546  0.148  0.847  1.000
  Li5  Li1+  0.146  0.948  0.647  1.000
  Li5  Li1+  0.946  0.348  0.447  1.000
  Li5  Li1+  0.146  0.548  0.647  1.000
  Li5  Li1+  0.746  0.948  0.647  1.000
  Li5  Li1+  0.146  0.548  0.847  1.000
  Li5  Li1+  0.146  0.948  0.847  1.000
  Li5  Li1+  0.746  0.348  0.847  1.000
  Li5  Li1+  0.746  0.148  0.247  1.000
  Li5  Li1+  0.946  0.748  0.447  1.000
  Li5  Li1+  0.146  0.348  0.447  1.000
  Li5  Li1+  0.346  0.748  0.047  1.000
  Li5  Li1+  0.546  0.948  0.647  1.000
  Li5  Li1+  0.346  0.948  0.647  1.000
  Li5  Li1+  0.946  0.548  0.447  1.000
  Li5  Li1+  0.346  0.548  0.447  1.000
  Li5  Li1+  0.346  0.548  0.847  1.000
  Li5  Li1+  0.346  0.748  0.247  1.000
  Li5  Li1+  0.946  0.948  0.847  1.000
  Li5  Li1+  0.346  0.148  0.647  1.000
  Li5  Li1+  0.946  0.148  0.847  1.000
  Li5  Li1+  0.746  0.348  0.047  1.000
  Li5  Li1+  0.546  0.548  0.647  1.000
  Li5  Li1+  0.746  0.948  0.247  1.000
  Li5  Li1+  0.346  0.348  0.847  1.000
  Li5  Li1+  0.546  0.148  0.447  1.000
  Li5  Li1+  0.946  0.348  0.647  1.000
  Li5  Li1+  0.146  0.348  0.647  1.000
  Li5  Li1+  0.946  0.748  0.647  1.000
  Li5  Li1+  0.746  0.748  0.847  1.000
  Li5  Li1+  0.546  0.148  0.047  1.000
  Li5  Li1+  0.746  0.548  0.047  1.000
  Li5  Li1+  0.746  0.548  0.647  1.000
  Li6  Li1+  0.246  0.356  0.350  1.000
  Li6  Li1+  0.846  0.156  0.350  1.000
  Li6  Li1+  0.046  0.356  0.550  1.000
  Li6  Li1+  0.846  0.756  0.950  1.000
  Li6  Li1+  0.046  0.956  0.150  1.000
  Li6  Li1+  0.246  0.756  0.950  1.000
  Li6  Li1+  0.646  0.556  0.550  1.000
  Li6  Li1+  0.246  0.756  0.350  1.000
  Li6  Li1+  0.646  0.956  0.950  1.000
  Li6  Li1+  0.646  0.356  0.350  1.000
  Li6  Li1+  0.446  0.156  0.350  1.000
  Li6  Li1+  0.646  0.156  0.150  1.000
  Li6  Li1+  0.446  0.156  0.750  1.000
  Li6  Li1+  0.246  0.556  0.350  1.000
  Li6  Li1+  0.646  0.156  0.750  1.000
  Li6  Li1+  0.046  0.756  0.350  1.000
  Li6  Li1+  0.246  0.156  0.550  1.000
  Li6  Li1+  0.846  0.156  0.950  1.000
  Li6  Li1+  0.846  0.356  0.550  1.000
  Li6  Li1+  0.246  0.956  0.750  1.000
  Li6  Li1+  0.046  0.756  0.150  1.000
  Li6  Li1+  0.846  0.756  0.150  1.000
  Li6  Li1+  0.446  0.756  0.350  1.000
  Li6  Li1+  0.646  0.756  0.950  1.000
  Li6  Li1+  0.846  0.956  0.150  1.000
  Li6  Li1+  0.446  0.756  0.950  1.000
  Li6  Li1+  0.646  0.756  0.150  1.000
  Li6  Li1+  0.446  0.356  0.950  1.000
  Li6  Li1+  0.046  0.356  0.750  1.000
  Li6  Li1+  0.046  0.556  0.150  1.000
  Li6  Li1+  0.046  0.156  0.550  1.000
  Li6  Li1+  0.846  0.556  0.350  1.000
  Li6  Li1+  0.446  0.956  0.750  1.000
  Li6  Li1+  0.246  0.356  0.150  1.000
  Li6  Li1+  0.646  0.356  0.550  1.000
  Li6  Li1+  0.246  0.956  0.550  1.000
  Li6  Li1+  0.046  0.956  0.750  1.000
  Li6  Li1+  0.446  0.756  0.150  1.000
  Li6  Li1+  0.646  0.556  0.950  1.000
  Li6  Li1+  0.046  0.156  0.150  1.000
  Li6  Li1+  0.246  0.556  0.150  1.000
  Li6  Li1+  0.846  0.756  0.350  1.000
  Li6  Li1+  0.446  0.956  0.350  1.000
  Li6  Li1+  0.846  0.956  0.350  1.000
  Li6  Li1+  0.246  0.956  0.150  1.000
  Li6  Li1+  0.246  0.556  0.750  1.000
  Li6  Li1+  0.446  0.556  0.950  1.000
  Li6  Li1+  0.446  0.356  0.350  1.000
  Li6  Li1+  0.846  0.356  0.750  1.000
  Li6  Li1+  0.846  0.156  0.550  1.000
  Li6  Li1+  0.646  0.756  0.750  1.000
  Li6  Li1+  0.246  0.956  0.350  1.000
  Li6  Li1+  0.646  0.156  0.350  1.000
  Li6  Li1+  0.646  0.156  0.950  1.000
  Li6  Li1+  0.246  0.356  0.550  1.000
  Li6  Li1+  0.646  0.756  0.350  1.000
  Li6  Li1+  0.246  0.756  0.550  1.000
  Li6  Li1+  0.246  0.156  0.350  1.000
  Li6  Li1+  0.646  0.556  0.150  1.000
  Li6  Li1+  0.846  0.556  0.550  1.000
  Li6  Li1+  0.446  0.156  0.150  1.000
  Li6  Li1+  0.246  0.356  0.950  1.000
  Li6  Li1+  0.046  0.356  0.350  1.000
  Li6  Li1+  0.446  0.356  0.750  1.000
  Li6  Li1+  0.846  0.356  0.150  1.000
  Li6  Li1+  0.846  0.956  0.550  1.000
  Li6  Li1+  0.646  0.356  0.750  1.000
  Li6  Li1+  0.046  0.556  0.550  1.000
  Li6  Li1+  0.646  0.956  0.350  1.000
  Li6  Li1+  0.446  0.156  0.950  1.000
  Li6  Li1+  0.646  0.556  0.350  1.000
  Li6  Li1+  0.046  0.156  0.950  1.000
  Li6  Li1+  0.846  0.756  0.550  1.000
  Li6  Li1+  0.246  0.156  0.150  1.000
  Li6  Li1+  0.646  0.956  0.750  1.000
  Li6  Li1+  0.446  0.556  0.150  1.000
  Li6  Li1+  0.846  0.156  0.150  1.000
  Li6  Li1+  0.046  0.556  0.750  1.000
  Li6  Li1+  0.446  0.156  0.550  1.000
  Li6  Li1+  0.046  0.956  0.950  1.000
  Li6  Li1+  0.246  0.756  0.750  1.000
  Li6  Li1+  0.446  0.956  0.950  1.000
  Li6  Li1+  0.046  0.556  0.350  1.000
  Li6  Li1+  0.846  0.356  0.950  1.000
  Li6  Li1+  0.846  0.956  0.750  1.000
  Li6  Li1+  0.046  0.356  0.150  1.000
  Li6  Li1+  0.046  0.756  0.550  1.000
  Li6  Li1+  0.446  0.756  0.750  1.000
  Li6  Li1+  0.246  0.756  0.150  1.000
  Li6  Li1+  0.646  0.356  0.150  1.000
  Li6  Li1+  0.446  0.356  0.550  1.000
  Li6  Li1+  0.046  0.356  0.950  1.000
  Li6  Li1+  0.846  0.556  0.750  1.000
  Li6  Li1+  0.446  0.556  0.550  1.000
  Li6  Li1+  0.646  0.956  0.150  1.000
  Li6  Li1+  0.846  0.156  0.750  1.000
  Li6  Li1+  0.646  0.356  0.950  1.000
  Li6  Li1+  0.246  0.556  0.550  1.000
  Li6  Li1+  0.846  0.756  0.750  1.000
  Li6  Li1+  0.046  0.956  0.350  1.000
  Li6  Li1+  0.446  0.556  0.350  1.000
  Li6  Li1+  0.446  0.956  0.150  1.000
  Li6  Li1+  0.646  0.556  0.750  1.000
  Li6  Li1+  0.046  0.956  0.550  1.000
  Li6  Li1+  0.646  0.156  0.550  1.000
  Li6  Li1+  0.846  0.356  0.350  1.000
  Li6  Li1+  0.446  0.956  0.550  1.000
  Li6  Li1+  0.046  0.156  0.750  1.000
  Li6  Li1+  0.846  0.956  0.950  1.000
  Li6  Li1+  0.046  0.756  0.750  1.000
  Li6  Li1+  0.246  0.156  0.750  1.000
  Li6  Li1+  0.246  0.956  0.950  1.000
  Li6  Li1+  0.046  0.156  0.350  1.000
  Li6  Li1+  0.246  0.556  0.950  1.000
  Li6  Li1+  0.446  0.556  0.750  1.000
  Li6  Li1+  0.046  0.756  0.950  1.000
  Li6  Li1+  0.446  0.756  0.550  1.000
  Li6  Li1+  0.846  0.556  0.150  1.000
  Li6  Li1+  0.846  0.556  0.950  1.000
  Li6  Li1+  0.646  0.956  0.550  1.000
  Li7  Li1+  0.050  0.750  0.049  1.000
  Li7  Li1+  0.250  0.350  0.249  1.000
  Li7  Li1+  0.650  0.550  0.849  1.000
  Li7  Li1+  0.050  0.550  0.049  1.000
  Li7  Li1+  0.450  0.950  0.049  1.000
  Li7  Li1+  0.650  0.150  0.249  1.000
  Li7  Li1+  0.050  0.950  0.849  1.000
  Li7  Li1+  0.650  0.750  0.249  1.000
  Li7  Li1+  0.850  0.950  0.049  1.000
  Li7  Li1+  0.850  0.150  0.649  1.000
  Li7  Li1+  0.050  0.150  0.049  1.000
  Li7  Li1+  0.050  0.750  0.449  1.000
  Li7  Li1+  0.650  0.750  0.649  1.000
  Li7  Li1+  0.850  0.750  0.249  1.000
  Li7  Li1+  0.050  0.550  0.449  1.000
  Li7  Li1+  0.450  0.750  0.449  1.000
  Li7  Li1+  0.850  0.550  0.449  1.000
  Li7  Li1+  0.050  0.350  0.049  1.000
  Li7  Li1+  0.650  0.350  0.449  1.000
  Li7  Li1+  0.250  0.550  0.649  1.000
  Li7  Li1+  0.650  0.950  0.449  1.000
  Li7  Li1+  0.650  0.150  0.849  1.000
  Li7  Li1+  0.650  0.750  0.849  1.000
  Li7  Li1+  0.050  0.150  0.249  1.000
  Li7  Li1+  0.250  0.150  0.049  1.000
  Li7  Li1+  0.450  0.950  0.849  1.000
  Li7  Li1+  0.450  0.350  0.249  1.000
  Li7  Li1+  0.450  0.750  0.249  1.000
  Li7  Li1+  0.250  0.150  0.249  1.000
  Li7  Li1+  0.050  0.350  0.249  1.000
  Li7  Li1+  0.850  0.950  0.249  1.000
  Li7  Li1+  0.250  0.750  0.649  1.000
  Li7  Li1+  0.850  0.350  0.849  1.000
  Li7  Li1+  0.050  0.150  0.849  1.000
  Li7  Li1+  0.450  0.150  0.449  1.000
  Li7  Li1+  0.450  0.950  0.449  1.000
  Li7  Li1+  0.250  0.950  0.849  1.000
  Li7  Li1+  0.650  0.950  0.849  1.000
  Li7  Li1+  0.450  0.150  0.849  1.000
  Li7  Li1+  0.850  0.350  0.249  1.000
  Li7  Li1+  0.850  0.150  0.249  1.000
  Li7  Li1+  0.650  0.550  0.249  1.000
  Li7  Li1+  0.450  0.750  0.049  1.000
  Li7  Li1+  0.650  0.750  0.449  1.000
  Li7  Li1+  0.450  0.550  0.249  1.000
  Li7  Li1+  0.250  0.950  0.049  1.000
  Li7  Li1+  0.250  0.150  0.849  1.000
  Li7  Li1+  0.850  0.750  0.449  1.000
  Li7  Li1+  0.450  0.550  0.449  1.000
  Li7  Li1+  0.050  0.950  0.049  1.000
  Li7  Li1+  0.450  0.750  0.849  1.000
  Li7  Li1+  0.250  0.950  0.649  1.000
  Li7  Li1+  0.650  0.350  0.649  1.000
  Li7  Li1+  0.850  0.550  0.649  1.000
  Li7  Li1+  0.250  0.950  0.449  1.000
  Li7  Li1+  0.850  0.950  0.449  1.000
  Li7  Li1+  0.050  0.350  0.449  1.000
  Li7  Li1+  0.050  0.750  0.249  1.000
  Li7  Li1+  0.250  0.350  0.449  1.000
  Li7  Li1+  0.450  0.350  0.649  1.000
  Li7  Li1+  0.250  0.550  0.449  1.000
  Li7  Li1+  0.850  0.150  0.849  1.000
  Li7  Li1+  0.650  0.150  0.449  1.000
  Li7  Li1+  0.650  0.550  0.449  1.000
  Li7  Li1+  0.650  0.350  0.049  1.000
  Li7  Li1+  0.050  0.550  0.849  1.000
  Li7  Li1+  0.450  0.150  0.249  1.000
  Li7  Li1+  0.250  0.750  0.249  1.000
  Li7  Li1+  0.450  0.550  0.049  1.000
  Li7  Li1+  0.650  0.950  0.249  1.000
  Li7  Li1+  0.250  0.950  0.249  1.000
  Li7  Li1+  0.250  0.150  0.649  1.000
  Li7  Li1+  0.850  0.350  0.449  1.000
  Li7  Li1+  0.050  0.750  0.649  1.000
  Li7  Li1+  0.050  0.950  0.649  1.000
  Li7  Li1+  0.450  0.350  0.449  1.000
  Li7  Li1+  0.850  0.750  0.649  1.000
  Li7  Li1+  0.850  0.950  0.649  1.000
  Li7  Li1+  0.050  0.150  0.449  1.000
  Li7  Li1+  0.650  0.150  0.049  1.000
  Li7  Li1+  0.050  0.550  0.249  1.000
  Li7  Li1+  0.050  0.950  0.249  1.000
  Li7  Li1+  0.850  0.150  0.449  1.000
  Li7  Li1+  0.050  0.350  0.649  1.000
  Li7  Li1+  0.850  0.550  0.849  1.000
  Li7  Li1+  0.450  0.350  0.849  1.000
  Li7  Li1+  0.450  0.950  0.249  1.000
  Li7  Li1+  0.650  0.350  0.849  1.000
  Li7  Li1+  0.250  0.750  0.049  1.000
  Li7  Li1+  0.250  0.550  0.249  1.000
  Li7  Li1+  0.650  0.950  0.649  1.000
  Li7  Li1+  0.050  0.750  0.849  1.000
  Li7  Li1+  0.450  0.950  0.649  1.000
  Li7  Li1+  0.450  0.150  0.649  1.000
  Li7  Li1+  0.650  0.550  0.649  1.000
  Li7  Li1+  0.650  0.750  0.049  1.000
  Li7  Li1+  0.450  0.350  0.049  1.000
  Li7  Li1+  0.650  0.950  0.049  1.000
  Li7  Li1+  0.450  0.750  0.649  1.000
  Li7  Li1+  0.250  0.550  0.849  1.000
  Li7  Li1+  0.250  0.750  0.449  1.000
  Li7  Li1+  0.650  0.150  0.649  1.000
  Li7  Li1+  0.850  0.950  0.849  1.000
  Li7  Li1+  0.450  0.550  0.649  1.000
  Li7  Li1+  0.850  0.750  0.849  1.000
  Li7  Li1+  0.050  0.350  0.849  1.000
  Li7  Li1+  0.850  0.550  0.249  1.000
  Li7  Li1+  0.250  0.350  0.849  1.000
  Li7  Li1+  0.250  0.350  0.649  1.000
  Li7  Li1+  0.650  0.350  0.249  1.000
  Li7  Li1+  0.250  0.750  0.849  1.000
  Li7  Li1+  0.850  0.350  0.649  1.000
  Li7  Li1+  0.850  0.750  0.049  1.000
  Li7  Li1+  0.250  0.550  0.049  1.000
  Li7  Li1+  0.050  0.150  0.649  1.000
  Li7  Li1+  0.050  0.550  0.649  1.000
  Li7  Li1+  0.250  0.350  0.049  1.000
  Li7  Li1+  0.850  0.350  0.049  1.000
  Li7  Li1+  0.050  0.950  0.449  1.000
  Li7  Li1+  0.450  0.150  0.049  1.000
  Li7  Li1+  0.650  0.550  0.049  1.000
  Li7  Li1+  0.250  0.150  0.449  1.000
  Li8  Li1+  0.552  0.244  0.069  1.000
  Li8  Li1+  0.552  0.644  0.869  1.000
  Li8  Li1+  0.352  0.244  0.669  1.000
  Li8  Li1+  0.352  0.644  0.269  1.000
  Li8  Li1+  0.752  0.644  0.669  1.000
  Li8  Li1+  0.952  0.044  0.869  1.000
  Li8  Li1+  0.152  0.044  0.669  1.000
  Li8  Li1+  0.552  0.444  0.669  1.000
  Li8  Li1+  0.352  0.444  0.269  1.000
  Li8  Li1+  0.352  0.244  0.869  1.000
  Li8  Li1+  0.952  0.644  0.269  1.000
  Li8  Li1+  0.952  0.844  0.069  1.000
  Li8  Li1+  0.952  0.044  0.469  1.000
  Li8  Li1+  0.152  0.044  0.869  1.000
  Li8  Li1+  0.352  0.444  0.869  1.000
  Li8  Li1+  0.952  0.044  0.069  1.000
  Li8  Li1+  0.352  0.844  0.869  1.000
  Li8  Li1+  0.352  0.244  0.269  1.000
  Li8  Li1+  0.152  0.444  0.869  1.000
  Li8  Li1+  0.352  0.244  0.069  1.000
  Li8  Li1+  0.152  0.444  0.469  1.000
  Li8  Li1+  0.952  0.244  0.469  1.000
  Li8  Li1+  0.752  0.444  0.469  1.000
  Li8  Li1+  0.152  0.844  0.669  1.000
  Li8  Li1+  0.752  0.844  0.469  1.000
  Li8  Li1+  0.352  0.444  0.069  1.000
  Li8  Li1+  0.352  0.844  0.269  1.000
  Li8  Li1+  0.752  0.044  0.869  1.000
  Li8  Li1+  0.152  0.244  0.669  1.000
  Li8  Li1+  0.352  0.044  0.669  1.000
  Li8  Li1+  0.952  0.444  0.669  1.000
  Li8  Li1+  0.552  0.644  0.669  1.000
  Li8  Li1+  0.952  0.444  0.069  1.000
  Li8  Li1+  0.152  0.644  0.469  1.000
  Li8  Li1+  0.152  0.644  0.869  1.000
  Li8  Li1+  0.752  0.244  0.469  1.000
  Li8  Li1+  0.552  0.044  0.469  1.000
  Li8  Li1+  0.152  0.844  0.269  1.000
  Li8  Li1+  0.352  0.844  0.469  1.000
  Li8  Li1+  0.952  0.844  0.269  1.000
  Li8  Li1+  0.952  0.644  0.469  1.000
  Li8  Li1+  0.352  0.844  0.669  1.000
  Li8  Li1+  0.152  0.244  0.869  1.000
  Li8  Li1+  0.552  0.444  0.069  1.000
  Li8  Li1+  0.152  0.644  0.069  1.000
  Li8  Li1+  0.152  0.244  0.469  1.000
  Li8  Li1+  0.552  0.444  0.869  1.000
  Li8  Li1+  0.752  0.044  0.469  1.000
  Li8  Li1+  0.552  0.844  0.269  1.000
  Li8  Li1+  0.152  0.644  0.269  1.000
  Li8  Li1+  0.552  0.244  0.869  1.000
  Li8  Li1+  0.152  0.444  0.069  1.000
  Li8  Li1+  0.352  0.044  0.469  1.000
  Li8  Li1+  0.152  0.244  0.269  1.000
  Li8  Li1+  0.952  0.244  0.069  1.000
  Li8  Li1+  0.752  0.644  0.069  1.000
  Li8  Li1+  0.152  0.044  0.069  1.000
  Li8  Li1+  0.152  0.444  0.669  1.000
  Li8  Li1+  0.552  0.044  0.869  1.000
  Li8  Li1+  0.552  0.844  0.669  1.000
  Li8  Li1+  0.552  0.244  0.269  1.000
  Li8  Li1+  0.952  0.444  0.869  1.000
  Li8  Li1+  0.552  0.644  0.469  1.000
  Li8  Li1+  0.752  0.044  0.069  1.000
  Li8  Li1+  0.752  0.844  0.269  1.000
  Li8  Li1+  0.952  0.844  0.469  1.000
  Li8  Li1+  0.952  0.044  0.269  1.000
  Li8  Li1+  0.952  0.244  0.669  1.000
  Li8  Li1+  0.152  0.444  0.269  1.000
  Li8  Li1+  0.152  0.844  0.469  1.000
  Li8  Li1+  0.952  0.044  0.669  1.000
  Li8  Li1+  0.352  0.444  0.669  1.000
  Li8  Li1+  0.952  0.644  0.669  1.000
  Li8  Li1+  0.152  0.044  0.269  1.000
  Li8  Li1+  0.752  0.244  0.069  1.000
  Li8  Li1+  0.752  0.844  0.869  1.000
  Li8  Li1+  0.952  0.444  0.269  1.000
  Li8  Li1+  0.552  0.044  0.269  1.000
  Li8  Li1+  0.352  0.644  0.869  1.000
  Li8  Li1+  0.152  0.844  0.069  1.000
  Li8  Li1+  0.552  0.644  0.269  1.000
  Li8  Li1+  0.552  0.444  0.269  1.000
  Li8  Li1+  0.752  0.444  0.069  1.000
  Li8  Li1+  0.152  0.844  0.869  1.000
  Li8  Li1+  0.552  0.444  0.469  1.000
  Li8  Li1+  0.352  0.244  0.469  1.000
  Li8  Li1+  0.152  0.244  0.069  1.000
  Li8  Li1+  0.752  0.444  0.269  1.000
  Li8  Li1+  0.552  0.844  0.069  1.000
  Li8  Li1+  0.352  0.044  0.869  1.000
  Li8  Li1+  0.152  0.644  0.669  1.000
  Li8  Li1+  0.352  0.644  0.469  1.000
  Li8  Li1+  0.952  0.844  0.669  1.000
  Li8  Li1+  0.752  0.844  0.069  1.000
  Li8  Li1+  0.952  0.644  0.069  1.000
  Li8  Li1+  0.752  0.044  0.669  1.000
  Li8  Li1+  0.352  0.644  0.069  1.000
  Li8  Li1+  0.352  0.644  0.669  1.000
  Li8  Li1+  0.552  0.244  0.669  1.000
  Li8  Li1+  0.952  0.244  0.269  1.000
  Li8  Li1+  0.552  0.044  0.669  1.000
  Li8  Li1+  0.752  0.644  0.869  1.000
  Li8  Li1+  0.752  0.644  0.269  1.000
  Li8  Li1+  0.752  0.844  0.669  1.000
  Li8  Li1+  0.952  0.644  0.869  1.000
  Li8  Li1+  0.752  0.444  0.669  1.000
  Li8  Li1+  0.752  0.644  0.469  1.000
  Li8  Li1+  0.552  0.044  0.069  1.000
  Li8  Li1+  0.352  0.844  0.069  1.000
  Li8  Li1+  0.352  0.444  0.469  1.000
  Li8  Li1+  0.352  0.044  0.069  1.000
  Li8  Li1+  0.952  0.244  0.869  1.000
  Li8  Li1+  0.552  0.844  0.469  1.000
  Li8  Li1+  0.752  0.244  0.869  1.000
  Li8  Li1+  0.352  0.044  0.269  1.000
  Li8  Li1+  0.552  0.244  0.469  1.000
  Li8  Li1+  0.152  0.044  0.469  1.000
  Li8  Li1+  0.752  0.244  0.269  1.000
  Li8  Li1+  0.952  0.844  0.869  1.000
  Li8  Li1+  0.552  0.844  0.869  1.000
  Li8  Li1+  0.952  0.444  0.469  1.000
  Li8  Li1+  0.752  0.044  0.269  1.000
  Li9  Li1+  0.094  0.100  0.149  1.000
  Li9  Li1+  0.094  0.100  0.349  1.000
  Li9  Li1+  0.494  0.100  0.349  1.000
  Li9  Li1+  0.094  0.300  0.149  1.000
  Li9  Li1+  0.494  0.500  0.749  1.000
  Li9  Li1+  0.294  0.900  0.549  1.000
  Li9  Li1+  0.894  0.700  0.549  1.000
  Li9  Li1+  0.094  0.100  0.949  1.000
  Li9  Li1+  0.494  0.700  0.749  1.000
  Li9  Li1+  0.694  0.700  0.149  1.000
  Li9  Li1+  0.694  0.300  0.549  1.000
  Li9  Li1+  0.694  0.500  0.349  1.000
  Li9  Li1+  0.494  0.100  0.949  1.000
  Li9  Li1+  0.494  0.100  0.149  1.000
  Li9  Li1+  0.694  0.900  0.349  1.000
  Li9  Li1+  0.894  0.300  0.349  1.000
  Li9  Li1+  0.894  0.500  0.949  1.000
  Li9  Li1+  0.894  0.500  0.349  1.000
  Li9  Li1+  0.094  0.900  0.549  1.000
  Li9  Li1+  0.894  0.900  0.349  1.000
  Li9  Li1+  0.494  0.700  0.549  1.000
  Li9  Li1+  0.494  0.500  0.549  1.000
  Li9  Li1+  0.494  0.900  0.549  1.000
  Li9  Li1+  0.694  0.700  0.949  1.000
  Li9  Li1+  0.694  0.900  0.149  1.000
  Li9  Li1+  0.094  0.900  0.749  1.000
  Li9  Li1+  0.294  0.500  0.949  1.000
  Li9  Li1+  0.294  0.300  0.149  1.000
  Li9  Li1+  0.494  0.300  0.349  1.000
  Li9  Li1+  0.094  0.500  0.349  1.000
  Li9  Li1+  0.094  0.100  0.749  1.000
  Li9  Li1+  0.294  0.900  0.949  1.000
  Li9  Li1+  0.294  0.900  0.749  1.000
  Li9  Li1+  0.694  0.900  0.949  1.000
  Li9  Li1+  0.294  0.700  0.349  1.000
  Li9  Li1+  0.294  0.300  0.949  1.000
  Li9  Li1+  0.294  0.500  0.749  1.000
  Li9  Li1+  0.694  0.700  0.749  1.000
  Li9  Li1+  0.694  0.300  0.149  1.000
  Li9  Li1+  0.094  0.700  0.949  1.000
  Li9  Li1+  0.494  0.500  0.149  1.000
  Li9  Li1+  0.894  0.300  0.949  1.000
  Li9  Li1+  0.294  0.100  0.949  1.000
  Li9  Li1+  0.894  0.700  0.749  1.000
  Li9  Li1+  0.694  0.500  0.749  1.000
  Li9  Li1+  0.494  0.900  0.949  1.000
  Li9  Li1+  0.294  0.900  0.149  1.000
  Li9  Li1+  0.294  0.100  0.149  1.000
  Li9  Li1+  0.094  0.300  0.949  1.000
  Li9  Li1+  0.894  0.100  0.349  1.000
  Li9  Li1+  0.894  0.900  0.549  1.000
  Li9  Li1+  0.494  0.300  0.949  1.000
  Li9  Li1+  0.094  0.300  0.549  1.000
  Li9  Li1+  0.694  0.100  0.749  1.000
  Li9  Li1+  0.294  0.300  0.349  1.000
  Li9  Li1+  0.694  0.300  0.749  1.000
  Li9  Li1+  0.494  0.900  0.349  1.000
  Li9  Li1+  0.494  0.100  0.749  1.000
  Li9  Li1+  0.294  0.500  0.549  1.000
  Li9  Li1+  0.694  0.100  0.349  1.000
  Li9  Li1+  0.294  0.100  0.349  1.000
  Li9  Li1+  0.894  0.700  0.149  1.000
  Li9  Li1+  0.094  0.500  0.149  1.000
  Li9  Li1+  0.894  0.500  0.549  1.000
  Li9  Li1+  0.894  0.300  0.549  1.000
  Li9  Li1+  0.094  0.100  0.549  1.000
  Li9  Li1+  0.294  0.100  0.549  1.000
  Li9  Li1+  0.294  0.500  0.349  1.000
  Li9  Li1+  0.294  0.500  0.149  1.000
  Li9  Li1+  0.494  0.500  0.949  1.000
  Li9  Li1+  0.694  0.500  0.549  1.000
  Li9  Li1+  0.294  0.100  0.749  1.000
  Li9  Li1+  0.094  0.900  0.349  1.000
  Li9  Li1+  0.094  0.700  0.349  1.000
  Li9  Li1+  0.694  0.900  0.749  1.000
  Li9  Li1+  0.094  0.700  0.549  1.000
  Li9  Li1+  0.894  0.100  0.749  1.000
  Li9  Li1+  0.894  0.700  0.949  1.000
  Li9  Li1+  0.494  0.300  0.749  1.000
  Li9  Li1+  0.894  0.900  0.749  1.000
  Li9  Li1+  0.694  0.700  0.349  1.000
  Li9  Li1+  0.094  0.500  0.549  1.000
  Li9  Li1+  0.894  0.300  0.149  1.000
  Li9  Li1+  0.094  0.900  0.149  1.000
  Li9  Li1+  0.494  0.900  0.149  1.000
  Li9  Li1+  0.294  0.700  0.749  1.000
  Li9  Li1+  0.094  0.700  0.149  1.000
  Li9  Li1+  0.494  0.900  0.749  1.000
  Li9  Li1+  0.694  0.500  0.149  1.000
  Li9  Li1+  0.894  0.500  0.149  1.000
  Li9  Li1+  0.694  0.300  0.349  1.000
  Li9  Li1+  0.494  0.300  0.149  1.000
  Li9  Li1+  0.494  0.100  0.549  1.000
  Li9  Li1+  0.494  0.300  0.549  1.000
  Li9  Li1+  0.894  0.700  0.349  1.000
  Li9  Li1+  0.494  0.500  0.349  1.000
  Li9  Li1+  0.094  0.500  0.949  1.000
  Li9  Li1+  0.694  0.300  0.949  1.000
  Li9  Li1+  0.294  0.700  0.949  1.000
  Li9  Li1+  0.694  0.500  0.949  1.000
  Li9  Li1+  0.694  0.900  0.549  1.000
  Li9  Li1+  0.094  0.700  0.749  1.000
  Li9  Li1+  0.094  0.500  0.749  1.000
  Li9  Li1+  0.894  0.500  0.749  1.000
  Li9  Li1+  0.494  0.700  0.949  1.000
  Li9  Li1+  0.294  0.900  0.349  1.000
  Li9  Li1+  0.294  0.700  0.149  1.000
  Li9  Li1+  0.694  0.700  0.549  1.000
  Li9  Li1+  0.694  0.100  0.949  1.000
  Li9  Li1+  0.894  0.900  0.949  1.000
  Li9  Li1+  0.894  0.900  0.149  1.000
  Li9  Li1+  0.894  0.100  0.149  1.000
  Li9  Li1+  0.894  0.300  0.749  1.000
  Li9  Li1+  0.694  0.100  0.149  1.000
  Li9  Li1+  0.094  0.900  0.949  1.000
  Li9  Li1+  0.094  0.300  0.749  1.000
  Li9  Li1+  0.294  0.700  0.549  1.000
  Li9  Li1+  0.494  0.700  0.149  1.000
  Li9  Li1+  0.294  0.300  0.749  1.000
  Li9  Li1+  0.894  0.100  0.549  1.000
  Li9  Li1+  0.694  0.100  0.549  1.000
  Li9  Li1+  0.494  0.700  0.349  1.000
  Li10  Li1+  0.646  0.246  0.072  1.000
  Li10  Li1+  0.246  0.646  0.672  1.000
  Li10  Li1+  0.846  0.846  0.272  1.000
  Li10  Li1+  0.446  0.446  0.672  1.000
  Li10  Li1+  0.046  0.646  0.472  1.000
  Li10  Li1+  0.846  0.446  0.472  1.000
  Li10  Li1+  0.246  0.446  0.272  1.000
  Li10  Li1+  0.446  0.246  0.272  1.000
  Li10  Li1+  0.246  0.446  0.672  1.000
  Li10  Li1+  0.446  0.646  0.672  1.000
  Li10  Li1+  0.246  0.846  0.472  1.000
  Li10  Li1+  0.046  0.446  0.072  1.000
  Li10  Li1+  0.246  0.446  0.472  1.000
  Li10  Li1+  0.846  0.646  0.672  1.000
  Li10  Li1+  0.446  0.846  0.672  1.000
  Li10  Li1+  0.246  0.246  0.672  1.000
  Li10  Li1+  0.846  0.646  0.072  1.000
  Li10  Li1+  0.446  0.446  0.472  1.000
  Li10  Li1+  0.246  0.246  0.272  1.000
  Li10  Li1+  0.246  0.846  0.072  1.000
  Li10  Li1+  0.246  0.646  0.872  1.000
  Li10  Li1+  0.446  0.246  0.872  1.000
  Li10  Li1+  0.646  0.446  0.472  1.000
  Li10  Li1+  0.846  0.046  0.472  1.000
  Li10  Li1+  0.646  0.646  0.472  1.000
  Li10  Li1+  0.846  0.446  0.072  1.000
  Li10  Li1+  0.646  0.846  0.872  1.000
  Li10  Li1+  0.246  0.646  0.072  1.000
  Li10  Li1+  0.246  0.246  0.472  1.000
  Li10  Li1+  0.646  0.446  0.272  1.000
  Li10  Li1+  0.246  0.046  0.272  1.000
  Li10  Li1+  0.446  0.046  0.472  1.000
  Li10  Li1+  0.046  0.646  0.872  1.000
  Li10  Li1+  0.046  0.846  0.872  1.000
  Li10  Li1+  0.646  0.646  0.272  1.000
  Li10  Li1+  0.846  0.846  0.472  1.000
  Li10  Li1+  0.846  0.046  0.872  1.000
  Li10  Li1+  0.046  0.846  0.672  1.000
  Li10  Li1+  0.646  0.246  0.672  1.000
  Li10  Li1+  0.846  0.246  0.672  1.000
  Li10  Li1+  0.046  0.446  0.872  1.000
  Li10  Li1+  0.246  0.846  0.672  1.000
  Li10  Li1+  0.046  0.246  0.272  1.000
  Li10  Li1+  0.046  0.646  0.072  1.000
  Li10  Li1+  0.046  0.446  0.672  1.000
  Li10  Li1+  0.646  0.046  0.072  1.000
  Li10  Li1+  0.046  0.446  0.472  1.000
  Li10  Li1+  0.446  0.046  0.272  1.000
  Li10  Li1+  0.446  0.646  0.072  1.000
  Li10  Li1+  0.846  0.446  0.672  1.000
  Li10  Li1+  0.846  0.646  0.272  1.000
  Li10  Li1+  0.846  0.646  0.872  1.000
  Li10  Li1+  0.246  0.246  0.072  1.000
  Li10  Li1+  0.846  0.246  0.272  1.000
  Li10  Li1+  0.446  0.246  0.072  1.000
  Li10  Li1+  0.646  0.846  0.672  1.000
  Li10  Li1+  0.446  0.846  0.472  1.000
  Li10  Li1+  0.046  0.246  0.072  1.000
  Li10  Li1+  0.046  0.646  0.272  1.000
  Li10  Li1+  0.446  0.046  0.072  1.000
  Li10  Li1+  0.646  0.446  0.072  1.000
  Li10  Li1+  0.646  0.646  0.672  1.000
  Li10  Li1+  0.246  0.246  0.872  1.000
  Li10  Li1+  0.646  0.246  0.272  1.000
  Li10  Li1+  0.246  0.046  0.472  1.000
  Li10  Li1+  0.646  0.046  0.872  1.000
  Li10  Li1+  0.646  0.846  0.472  1.000
  Li10  Li1+  0.646  0.046  0.472  1.000
  Li10  Li1+  0.846  0.846  0.672  1.000
  Li10  Li1+  0.646  0.646  0.072  1.000
  Li10  Li1+  0.246  0.846  0.872  1.000
  Li10  Li1+  0.646  0.446  0.672  1.000
  Li10  Li1+  0.846  0.046  0.272  1.000
  Li10  Li1+  0.446  0.446  0.072  1.000
  Li10  Li1+  0.646  0.646  0.872  1.000
  Li10  Li1+  0.046  0.846  0.072  1.000
  Li10  Li1+  0.446  0.246  0.672  1.000
  Li10  Li1+  0.446  0.246  0.472  1.000
  Li10  Li1+  0.846  0.446  0.272  1.000
  Li10  Li1+  0.246  0.846  0.272  1.000
  Li10  Li1+  0.446  0.846  0.272  1.000
  Li10  Li1+  0.046  0.046  0.472  1.000
  Li10  Li1+  0.046  0.246  0.472  1.000
  Li10  Li1+  0.646  0.246  0.872  1.000
  Li10  Li1+  0.246  0.046  0.872  1.000
  Li10  Li1+  0.646  0.846  0.072  1.000
  Li10  Li1+  0.846  0.846  0.072  1.000
  Li10  Li1+  0.046  0.046  0.872  1.000
  Li10  Li1+  0.446  0.046  0.872  1.000
  Li10  Li1+  0.446  0.646  0.272  1.000
  Li10  Li1+  0.846  0.446  0.872  1.000
  Li10  Li1+  0.846  0.646  0.472  1.000
  Li10  Li1+  0.646  0.846  0.272  1.000
  Li10  Li1+  0.046  0.046  0.672  1.000
  Li10  Li1+  0.846  0.246  0.872  1.000
  Li10  Li1+  0.246  0.446  0.072  1.000
  Li10  Li1+  0.446  0.846  0.872  1.000
  Li10  Li1+  0.246  0.046  0.072  1.000
  Li10  Li1+  0.046  0.246  0.872  1.000
  Li10  Li1+  0.846  0.046  0.672  1.000
  Li10  Li1+  0.046  0.046  0.272  1.000
  Li10  Li1+  0.846  0.846  0.872  1.000
  Li10  Li1+  0.246  0.046  0.672  1.000
  Li10  Li1+  0.246  0.646  0.272  1.000
  Li10  Li1+  0.446  0.846  0.072  1.000
  Li10  Li1+  0.046  0.846  0.272  1.000
  Li10  Li1+  0.046  0.646  0.672  1.000
  Li10  Li1+  0.646  0.246  0.472  1.000
  Li10  Li1+  0.846  0.246  0.472  1.000
  Li10  Li1+  0.446  0.646  0.872  1.000
  Li10  Li1+  0.646  0.446  0.872  1.000
  Li10  Li1+  0.246  0.446  0.872  1.000
  Li10  Li1+  0.446  0.646  0.472  1.000
  Li10  Li1+  0.846  0.046  0.072  1.000
  Li10  Li1+  0.646  0.046  0.272  1.000
  Li10  Li1+  0.446  0.446  0.872  1.000
  Li10  Li1+  0.046  0.246  0.672  1.000
  Li10  Li1+  0.846  0.246  0.072  1.000
  Li10  Li1+  0.046  0.846  0.472  1.000
  Li10  Li1+  0.446  0.446  0.272  1.000
  Li10  Li1+  0.046  0.046  0.072  1.000
  Li10  Li1+  0.446  0.046  0.672  1.000
  Li11  Li1+  0.550  0.054  0.771  1.000
  Li11  Li1+  0.350  0.654  0.171  1.000
  Li11  Li1+  0.150  0.654  0.771  1.000
  Li11  Li1+  0.750  0.254  0.171  1.000
  Li11  Li1+  0.950  0.854  0.371  1.000
  Li11  Li1+  0.950  0.654  0.771  1.000
  Li11  Li1+  0.550  0.854  0.571  1.000
  Li11  Li1+  0.750  0.454  0.771  1.000
  Li11  Li1+  0.350  0.654  0.771  1.000
  Li11  Li1+  0.350  0.454  0.371  1.000
  Li11  Li1+  0.150  0.054  0.971  1.000
  Li11  Li1+  0.150  0.454  0.571  1.000
  Li11  Li1+  0.950  0.054  0.771  1.000
  Li11  Li1+  0.750  0.054  0.171  1.000
  Li11  Li1+  0.350  0.854  0.971  1.000
  Li11  Li1+  0.150  0.054  0.771  1.000
  Li11  Li1+  0.750  0.454  0.171  1.000
  Li11  Li1+  0.550  0.254  0.371  1.000
  Li11  Li1+  0.550  0.454  0.171  1.000
  Li11  Li1+  0.750  0.454  0.371  1.000
  Li11  Li1+  0.550  0.454  0.771  1.000
  Li11  Li1+  0.350  0.054  0.171  1.000
  Li11  Li1+  0.150  0.254  0.571  1.000
  Li11  Li1+  0.950  0.054  0.171  1.000
  Li11  Li1+  0.550  0.054  0.571  1.000
  Li11  Li1+  0.350  0.854  0.371  1.000
  Li11  Li1+  0.950  0.454  0.771  1.000
  Li11  Li1+  0.550  0.854  0.371  1.000
  Li11  Li1+  0.550  0.054  0.371  1.000
  Li11  Li1+  0.150  0.054  0.571  1.000
  Li11  Li1+  0.550  0.654  0.571  1.000
  Li11  Li1+  0.750  0.654  0.371  1.000
  Li11  Li1+  0.350  0.454  0.771  1.000
  Li11  Li1+  0.350  0.454  0.571  1.000
  Li11  Li1+  0.550  0.054  0.171  1.000
  Li11  Li1+  0.550  0.854  0.171  1.000
  Li11  Li1+  0.750  0.454  0.571  1.000
  Li11  Li1+  0.950  0.654  0.371  1.000
  Li11  Li1+  0.550  0.454  0.371  1.000
  Li11  Li1+  0.750  0.654  0.771  1.000
  Li11  Li1+  0.950  0.854  0.571  1.000
  Li11  Li1+  0.550  0.654  0.971  1.000
  Li11  Li1+  0.950  0.454  0.371  1.000
  Li11  Li1+  0.550  0.654  0.771  1.000
  Li11  Li1+  0.950  0.254  0.171  1.000
  Li11  Li1+  0.750  0.254  0.771  1.000
  Li11  Li1+  0.350  0.054  0.771  1.000
  Li11  Li1+  0.950  0.254  0.571  1.000
  Li11  Li1+  0.150  0.454  0.971  1.000
  Li11  Li1+  0.950  0.654  0.971  1.000
  Li11  Li1+  0.750  0.054  0.571  1.000
  Li11  Li1+  0.150  0.854  0.971  1.000
  Li11  Li1+  0.150  0.854  0.771  1.000
  Li11  Li1+  0.750  0.854  0.971  1.000
  Li11  Li1+  0.150  0.254  0.971  1.000
  Li11  Li1+  0.750  0.054  0.971  1.000
  Li11  Li1+  0.350  0.254  0.971  1.000
  Li11  Li1+  0.350  0.854  0.171  1.000
  Li11  Li1+  0.750  0.654  0.171  1.000
  Li11  Li1+  0.950  0.054  0.571  1.000
  Li11  Li1+  0.550  0.854  0.971  1.000
  Li11  Li1+  0.750  0.254  0.371  1.000
  Li11  Li1+  0.150  0.654  0.571  1.000
  Li11  Li1+  0.550  0.254  0.171  1.000
  Li11  Li1+  0.550  0.254  0.971  1.000
  Li11  Li1+  0.550  0.254  0.771  1.000
  Li11  Li1+  0.350  0.054  0.371  1.000
  Li11  Li1+  0.750  0.654  0.971  1.000
  Li11  Li1+  0.350  0.054  0.571  1.000
  Li11  Li1+  0.150  0.254  0.171  1.000
  Li11  Li1+  0.150  0.454  0.171  1.000
  Li11  Li1+  0.350  0.854  0.571  1.000
  Li11  Li1+  0.950  0.454  0.971  1.000
  Li11  Li1+  0.750  0.854  0.771  1.000
  Li11  Li1+  0.150  0.254  0.771  1.000
  Li11  Li1+  0.950  0.854  0.771  1.000
  Li11  Li1+  0.350  0.054  0.971  1.000
  Li11  Li1+  0.750  0.854  0.171  1.000
  Li11  Li1+  0.350  0.654  0.971  1.000
  Li11  Li1+  0.750  0.854  0.571  1.000
  Li11  Li1+  0.150  0.254  0.371  1.000
  Li11  Li1+  0.550  0.654  0.171  1.000
  Li11  Li1+  0.350  0.654  0.371  1.000
  Li11  Li1+  0.950  0.854  0.171  1.000
  Li11  Li1+  0.950  0.654  0.571  1.000
  Li11  Li1+  0.150  0.054  0.171  1.000
  Li11  Li1+  0.950  0.054  0.371  1.000
  Li11  Li1+  0.950  0.054  0.971  1.000
  Li11  Li1+  0.550  0.854  0.771  1.000
  Li11  Li1+  0.350  0.454  0.971  1.000
  Li11  Li1+  0.550  0.054  0.971  1.000
  Li11  Li1+  0.750  0.654  0.571  1.000
  Li11  Li1+  0.350  0.254  0.371  1.000
  Li11  Li1+  0.150  0.854  0.171  1.000
  Li11  Li1+  0.150  0.454  0.771  1.000
  Li11  Li1+  0.750  0.854  0.371  1.000
  Li11  Li1+  0.950  0.454  0.571  1.000
  Li11  Li1+  0.550  0.454  0.571  1.000
  Li11  Li1+  0.750  0.254  0.971  1.000
  Li11  Li1+  0.750  0.054  0.371  1.000
  Li11  Li1+  0.550  0.254  0.571  1.000
  Li11  Li1+  0.350  0.654  0.571  1.000
  Li11  Li1+  0.550  0.654  0.371  1.000
  Li11  Li1+  0.150  0.654  0.171  1.000
  Li11  Li1+  0.950  0.454  0.171  1.000
  Li11  Li1+  0.950  0.254  0.771  1.000
  Li11  Li1+  0.150  0.854  0.371  1.000
  Li11  Li1+  0.350  0.454  0.171  1.000
  Li11  Li1+  0.350  0.254  0.771  1.000
  Li11  Li1+  0.750  0.454  0.971  1.000
  Li11  Li1+  0.150  0.054  0.371  1.000
  Li11  Li1+  0.950  0.854  0.971  1.000
  Li11  Li1+  0.950  0.254  0.371  1.000
  Li11  Li1+  0.350  0.254  0.571  1.000
  Li11  Li1+  0.550  0.454  0.971  1.000
  Li11  Li1+  0.750  0.254  0.571  1.000
  Li11  Li1+  0.350  0.854  0.771  1.000
  Li11  Li1+  0.750  0.054  0.771  1.000
  Li11  Li1+  0.150  0.854  0.571  1.000
  Li11  Li1+  0.950  0.654  0.171  1.000
  Li11  Li1+  0.150  0.654  0.371  1.000
  Li11  Li1+  0.150  0.454  0.371  1.000
  Li12  Li1+  0.848  0.152  0.001  1.000
  Li12  Li1+  0.048  0.552  0.601  1.000
  Li12  Li1+  0.248  0.552  0.001  1.000
  Li12  Li1+  0.048  0.352  0.201  1.000
  Li12  Li1+  0.448  0.552  0.201  1.000
  Li12  Li1+  0.048  0.152  0.601  1.000
  Li12  Li1+  0.648  0.152  0.801  1.000
  Li12  Li1+  0.048  0.952  0.201  1.000
  Li12  Li1+  0.248  0.752  0.601  1.000
  Li12  Li1+  0.848  0.352  0.201  1.000
  Li12  Li1+  0.448  0.752  0.801  1.000
  Li12  Li1+  0.848  0.752  0.801  1.000
  Li12  Li1+  0.848  0.152  0.601  1.000
  Li12  Li1+  0.648  0.952  0.001  1.000
  Li12  Li1+  0.848  0.552  0.801  1.000
  Li12  Li1+  0.648  0.952  0.801  1.000
  Li12  Li1+  0.848  0.352  0.601  1.000
  Li12  Li1+  0.448  0.352  0.601  1.000
  Li12  Li1+  0.248  0.352  0.201  1.000
  Li12  Li1+  0.648  0.152  0.201  1.000
  Li12  Li1+  0.848  0.952  0.401  1.000
  Li12  Li1+  0.248  0.152  0.601  1.000
  Li12  Li1+  0.848  0.552  0.401  1.000
  Li12  Li1+  0.848  0.552  0.001  1.000
  Li12  Li1+  0.648  0.352  0.601  1.000
  Li12  Li1+  0.248  0.152  0.201  1.000
  Li12  Li1+  0.448  0.952  0.201  1.000
  Li12  Li1+  0.448  0.352  0.001  1.000
  Li12  Li1+  0.448  0.752  0.601  1.000
  Li12  Li1+  0.648  0.352  0.201  1.000
  Li12  Li1+  0.648  0.552  0.401  1.000
  Li12  Li1+  0.048  0.752  0.001  1.000
  Li12  Li1+  0.048  0.952  0.001  1.000
  Li12  Li1+  0.048  0.952  0.601  1.000
  Li12  Li1+  0.248  0.952  0.801  1.000
  Li12  Li1+  0.048  0.352  0.601  1.000
  Li12  Li1+  0.648  0.952  0.401  1.000
  Li12  Li1+  0.448  0.152  0.801  1.000
  Li12  Li1+  0.448  0.952  0.001  1.000
  Li12  Li1+  0.848  0.752  0.401  1.000
  Li12  Li1+  0.048  0.552  0.001  1.000
  Li12  Li1+  0.648  0.952  0.601  1.000
  Li12  Li1+  0.248  0.352  0.001  1.000
  Li12  Li1+  0.448  0.152  0.001  1.000
  Li12  Li1+  0.248  0.152  0.401  1.000
  Li12  Li1+  0.448  0.552  0.801  1.000
  Li12  Li1+  0.648  0.552  0.801  1.000
  Li12  Li1+  0.248  0.952  0.401  1.000
  Li12  Li1+  0.648  0.152  0.001  1.000
  Li12  Li1+  0.248  0.352  0.801  1.000
  Li12  Li1+  0.048  0.552  0.801  1.000
  Li12  Li1+  0.648  0.952  0.201  1.000
  Li12  Li1+  0.448  0.152  0.601  1.000
  Li12  Li1+  0.448  0.152  0.201  1.000
  Li12  Li1+  0.648  0.152  0.601  1.000
  Li12  Li1+  0.848  0.952  0.001  1.000
  Li12  Li1+  0.848  0.152  0.401  1.000
  Li12  Li1+  0.248  0.752  0.401  1.000
  Li12  Li1+  0.848  0.952  0.601  1.000
  Li12  Li1+  0.448  0.152  0.401  1.000
  Li12  Li1+  0.248  0.552  0.201  1.000
  Li12  Li1+  0.648  0.552  0.601  1.000
  Li12  Li1+  0.848  0.752  0.001  1.000
  Li12  Li1+  0.448  0.552  0.401  1.000
  Li12  Li1+  0.048  0.952  0.401  1.000
  Li12  Li1+  0.048  0.152  0.801  1.000
  Li12  Li1+  0.048  0.552  0.401  1.000
  Li12  Li1+  0.848  0.352  0.001  1.000
  Li12  Li1+  0.048  0.952  0.801  1.000
  Li12  Li1+  0.648  0.752  0.601  1.000
  Li12  Li1+  0.048  0.752  0.801  1.000
  Li12  Li1+  0.448  0.752  0.201  1.000
  Li12  Li1+  0.048  0.352  0.001  1.000
  Li12  Li1+  0.648  0.352  0.001  1.000
  Li12  Li1+  0.448  0.352  0.401  1.000
  Li12  Li1+  0.648  0.752  0.001  1.000
  Li12  Li1+  0.048  0.752  0.601  1.000
  Li12  Li1+  0.248  0.752  0.201  1.000
  Li12  Li1+  0.848  0.352  0.401  1.000
  Li12  Li1+  0.648  0.352  0.801  1.000
  Li12  Li1+  0.248  0.352  0.401  1.000
  Li12  Li1+  0.648  0.352  0.401  1.000
  Li12  Li1+  0.048  0.152  0.201  1.000
  Li12  Li1+  0.448  0.352  0.801  1.000
  Li12  Li1+  0.848  0.752  0.601  1.000
  Li12  Li1+  0.848  0.552  0.601  1.000
  Li12  Li1+  0.648  0.752  0.401  1.000
  Li12  Li1+  0.248  0.352  0.601  1.000
  Li12  Li1+  0.848  0.152  0.201  1.000
  Li12  Li1+  0.248  0.752  0.801  1.000
  Li12  Li1+  0.848  0.552  0.201  1.000
  Li12  Li1+  0.048  0.752  0.201  1.000
  Li12  Li1+  0.648  0.752  0.201  1.000
  Li12  Li1+  0.248  0.952  0.201  1.000
  Li12  Li1+  0.448  0.552  0.001  1.000
  Li12  Li1+  0.248  0.552  0.401  1.000
  Li12  Li1+  0.848  0.152  0.801  1.000
  Li12  Li1+  0.048  0.352  0.401  1.000
  Li12  Li1+  0.848  0.952  0.201  1.000
  Li12  Li1+  0.848  0.952  0.801  1.000
  Li12  Li1+  0.648  0.552  0.001  1.000
  Li12  Li1+  0.048  0.752  0.401  1.000
  Li12  Li1+  0.648  0.552  0.201  1.000
  Li12  Li1+  0.248  0.952  0.601  1.000
  Li12  Li1+  0.048  0.552  0.201  1.000
  Li12  Li1+  0.448  0.752  0.401  1.000
  Li12  Li1+  0.448  0.952  0.601  1.000
  Li12  Li1+  0.648  0.152  0.401  1.000
  Li12  Li1+  0.448  0.352  0.201  1.000
  Li12  Li1+  0.248  0.752  0.001  1.000
  Li12  Li1+  0.848  0.752  0.201  1.000
  Li12  Li1+  0.648  0.752  0.801  1.000
  Li12  Li1+  0.248  0.952  0.001  1.000
  Li12  Li1+  0.248  0.552  0.601  1.000
  Li12  Li1+  0.248  0.552  0.801  1.000
  Li12  Li1+  0.448  0.552  0.601  1.000
  Li12  Li1+  0.048  0.352  0.801  1.000
  Li12  Li1+  0.048  0.152  0.001  1.000
  Li12  Li1+  0.048  0.152  0.401  1.000
  Li12  Li1+  0.448  0.752  0.001  1.000
  Li13  Li1+  0.948  0.050  0.426  1.000
  Li13  Li1+  0.548  0.450  0.426  1.000
  Li13  Li1+  0.348  0.250  0.626  1.000
  Li13  Li1+  0.948  0.450  0.026  1.000
  Li13  Li1+  0.948  0.450  0.826  1.000
  Li13  Li1+  0.548  0.850  0.226  1.000
  Li13  Li1+  0.748  0.650  0.226  1.000
  Li13  Li1+  0.148  0.050  0.226  1.000
  Li13  Li1+  0.348  0.050  0.426  1.000
  Li13  Li1+  0.548  0.450  0.226  1.000
  Li13  Li1+  0.548  0.650  0.226  1.000
  Li13  Li1+  0.948  0.450  0.426  1.000
  Li13  Li1+  0.548  0.250  0.626  1.000
  Li13  Li1+  0.148  0.450  0.626  1.000
  Li13  Li1+  0.948  0.250  0.026  1.000
  Li13  Li1+  0.748  0.050  0.226  1.000
  Li13  Li1+  0.748  0.050  0.826  1.000
  Li13  Li1+  0.148  0.450  0.426  1.000
  Li13  Li1+  0.948  0.050  0.226  1.000
  Li13  Li1+  0.948  0.650  0.826  1.000
  Li13  Li1+  0.548  0.450  0.026  1.000
  Li13  Li1+  0.748  0.850  0.026  1.000
  Li13  Li1+  0.348  0.850  0.826  1.000
  Li13  Li1+  0.148  0.250  0.026  1.000
  Li13  Li1+  0.348  0.650  0.426  1.000
  Li13  Li1+  0.548  0.250  0.226  1.000
  Li13  Li1+  0.148  0.850  0.426  1.000
  Li13  Li1+  0.748  0.450  0.826  1.000
  Li13  Li1+  0.348  0.450  0.426  1.000
  Li13  Li1+  0.748  0.450  0.626  1.000
  Li13  Li1+  0.348  0.050  0.826  1.000
  Li13  Li1+  0.148  0.850  0.826  1.000
  Li13  Li1+  0.148  0.650  0.626  1.000
  Li13  Li1+  0.348  0.050  0.026  1.000
  Li13  Li1+  0.148  0.650  0.026  1.000
  Li13  Li1+  0.948  0.850  0.426  1.000
  Li13  Li1+  0.348  0.850  0.426  1.000
  Li13  Li1+  0.948  0.650  0.426  1.000
  Li13  Li1+  0.148  0.050  0.626  1.000
  Li13  Li1+  0.348  0.450  0.626  1.000
  Li13  Li1+  0.948  0.250  0.426  1.000
  Li13  Li1+  0.148  0.250  0.226  1.000
  Li13  Li1+  0.148  0.250  0.626  1.000
  Li13  Li1+  0.748  0.250  0.226  1.000
  Li13  Li1+  0.748  0.250  0.626  1.000
  Li13  Li1+  0.548  0.450  0.626  1.000
  Li13  Li1+  0.348  0.250  0.026  1.000
  Li13  Li1+  0.148  0.850  0.026  1.000
  Li13  Li1+  0.148  0.050  0.826  1.000
  Li13  Li1+  0.748  0.050  0.026  1.000
  Li13  Li1+  0.548  0.250  0.026  1.000
  Li13  Li1+  0.548  0.650  0.026  1.000
  Li13  Li1+  0.948  0.050  0.826  1.000
  Li13  Li1+  0.348  0.650  0.826  1.000
  Li13  Li1+  0.948  0.050  0.026  1.000
  Li13  Li1+  0.748  0.850  0.226  1.000
  Li13  Li1+  0.548  0.050  0.026  1.000
  Li13  Li1+  0.348  0.250  0.226  1.000
  Li13  Li1+  0.748  0.850  0.426  1.000
  Li13  Li1+  0.748  0.650  0.626  1.000
  Li13  Li1+  0.548  0.050  0.226  1.000
  Li13  Li1+  0.348  0.450  0.026  1.000
  Li13  Li1+  0.948  0.650  0.026  1.000
  Li13  Li1+  0.148  0.450  0.826  1.000
  Li13  Li1+  0.948  0.850  0.026  1.000
  Li13  Li1+  0.548  0.050  0.826  1.000
  Li13  Li1+  0.748  0.050  0.626  1.000
  Li13  Li1+  0.948  0.250  0.826  1.000
  Li13  Li1+  0.948  0.450  0.226  1.000
  Li13  Li1+  0.148  0.050  0.026  1.000
  Li13  Li1+  0.748  0.850  0.826  1.000
  Li13  Li1+  0.748  0.850  0.626  1.000
  Li13  Li1+  0.348  0.650  0.026  1.000
  Li13  Li1+  0.148  0.450  0.226  1.000
  Li13  Li1+  0.548  0.850  0.826  1.000
  Li13  Li1+  0.548  0.050  0.626  1.000
  Li13  Li1+  0.948  0.850  0.626  1.000
  Li13  Li1+  0.148  0.050  0.426  1.000
  Li13  Li1+  0.948  0.450  0.626  1.000
  Li13  Li1+  0.548  0.450  0.826  1.000
  Li13  Li1+  0.148  0.450  0.026  1.000
  Li13  Li1+  0.348  0.850  0.226  1.000
  Li13  Li1+  0.148  0.650  0.826  1.000
  Li13  Li1+  0.748  0.450  0.426  1.000
  Li13  Li1+  0.948  0.050  0.626  1.000
  Li13  Li1+  0.548  0.050  0.426  1.000
  Li13  Li1+  0.348  0.250  0.826  1.000
  Li13  Li1+  0.348  0.850  0.026  1.000
  Li13  Li1+  0.548  0.650  0.626  1.000
  Li13  Li1+  0.148  0.250  0.826  1.000
  Li13  Li1+  0.948  0.650  0.626  1.000
  Li13  Li1+  0.748  0.450  0.226  1.000
  Li13  Li1+  0.748  0.250  0.026  1.000
  Li13  Li1+  0.748  0.450  0.026  1.000
  Li13  Li1+  0.148  0.850  0.226  1.000
  Li13  Li1+  0.148  0.650  0.426  1.000
  Li13  Li1+  0.548  0.250  0.826  1.000
  Li13  Li1+  0.148  0.250  0.426  1.000
  Li13  Li1+  0.348  0.250  0.426  1.000
  Li13  Li1+  0.948  0.250  0.226  1.000
  Li13  Li1+  0.748  0.650  0.426  1.000
  Li13  Li1+  0.548  0.850  0.626  1.000
  Li13  Li1+  0.148  0.850  0.626  1.000
  Li13  Li1+  0.148  0.650  0.226  1.000
  Li13  Li1+  0.748  0.250  0.426  1.000
  Li13  Li1+  0.748  0.050  0.426  1.000
  Li13  Li1+  0.348  0.650  0.626  1.000
  Li13  Li1+  0.348  0.450  0.226  1.000
  Li13  Li1+  0.748  0.250  0.826  1.000
  Li13  Li1+  0.548  0.650  0.826  1.000
  Li13  Li1+  0.348  0.450  0.826  1.000
  Li13  Li1+  0.348  0.050  0.226  1.000
  Li13  Li1+  0.948  0.650  0.226  1.000
  Li13  Li1+  0.548  0.250  0.426  1.000
  Li13  Li1+  0.948  0.850  0.226  1.000
  Li13  Li1+  0.348  0.850  0.626  1.000
  Li13  Li1+  0.748  0.650  0.026  1.000
  Li13  Li1+  0.548  0.850  0.026  1.000
  Li13  Li1+  0.348  0.050  0.626  1.000
  Li13  Li1+  0.948  0.850  0.826  1.000
  Li13  Li1+  0.948  0.250  0.626  1.000
  Li13  Li1+  0.748  0.650  0.826  1.000
  Li13  Li1+  0.548  0.850  0.426  1.000
  Li13  Li1+  0.348  0.650  0.226  1.000
  Li14  Li1+  0.952  0.146  0.940  1.000
  Li14  Li1+  0.548  0.940  0.946  1.000
  Li14  Li1+  0.148  0.540  0.746  1.000
  Li14  Li1+  0.548  0.940  0.546  1.000
  Li14  Li1+  0.548  0.340  0.146  1.000
  Li14  Li1+  0.148  0.340  0.946  1.000
  Li14  Li1+  0.752  0.746  0.940  1.000
  Li14  Li1+  0.952  0.746  0.340  1.000
  Li14  Li1+  0.152  0.146  0.540  1.000
  Li14  Li1+  0.552  0.746  0.940  1.000
  Li14  Li1+  0.152  0.546  0.140  1.000
  Li14  Li1+  0.748  0.540  0.546  1.000
  Li14  Li1+  0.348  0.340  0.746  1.000
  Li14  Li1+  0.148  0.340  0.346  1.000
  Li14  Li1+  0.948  0.140  0.946  1.000
  Li14  Li1+  0.948  0.940  0.146  1.000
  Li14  Li1+  0.152  0.546  0.940  1.000
  Li14  Li1+  0.352  0.546  0.140  1.000
  Li14  Li1+  0.552  0.546  0.740  1.000
  Li14  Li1+  0.752  0.746  0.740  1.000
  Li14  Li1+  0.352  0.946  0.940  1.000
  Li14  Li1+  0.152  0.746  0.140  1.000
  Li14  Li1+  0.348  0.540  0.346  1.000
  Li14  Li1+  0.348  0.140  0.546  1.000
  Li14  Li1+  0.148  0.140  0.546  1.000
  Li14  Li1+  0.952  0.146  0.540  1.000
  Li14  Li1+  0.152  0.746  0.540  1.000
  Li14  Li1+  0.548  0.740  0.946  1.000
  Li14  Li1+  0.352  0.346  0.340  1.000
  Li14  Li1+  0.952  0.146  0.140  1.000
  Li14  Li1+  0.352  0.346  0.140  1.000
  Li14  Li1+  0.348  0.740  0.746  1.000
  Li14  Li1+  0.748  0.740  0.946  1.000
  Li14  Li1+  0.952  0.346  0.540  1.000
  Li14  Li1+  0.348  0.340  0.946  1.000
  Li14  Li1+  0.948  0.140  0.546  1.000
  Li14  Li1+  0.952  0.546  0.740  1.000
  Li14  Li1+  0.348  0.940  0.146  1.000
  Li14  Li1+  0.152  0.746  0.740  1.000
  Li14  Li1+  0.348  0.940  0.946  1.000
  Li14  Li1+  0.348  0.540  0.146  1.000
  Li14  Li1+  0.952  0.546  0.140  1.000
  Li14  Li1+  0.948  0.140  0.146  1.000
  Li14  Li1+  0.748  0.140  0.946  1.000
  Li14  Li1+  0.152  0.346  0.340  1.000
  Li14  Li1+  0.552  0.146  0.540  1.000
  Li14  Li1+  0.348  0.740  0.146  1.000
  Li14  Li1+  0.748  0.740  0.546  1.000
  Li14  Li1+  0.352  0.946  0.540  1.000
  Li14  Li1+  0.352  0.946  0.340  1.000
  Li14  Li1+  0.752  0.346  0.540  1.000
  Li14  Li1+  0.352  0.146  0.540  1.000
  Li14  Li1+  0.948  0.540  0.146  1.000
  Li14  Li1+  0.952  0.746  0.540  1.000
  Li14  Li1+  0.148  0.940  0.746  1.000
  Li14  Li1+  0.152  0.146  0.340  1.000
  Li14  Li1+  0.152  0.346  0.540  1.000
  Li14  Li1+  0.748  0.340  0.546  1.000
  Li14  Li1+  0.748  0.740  0.746  1.000
  Li14  Li1+  0.352  0.946  0.740  1.000
  Li14  Li1+  0.952  0.946  0.340  1.000
  Li14  Li1+  0.548  0.140  0.546  1.000
  Li14  Li1+  0.148  0.140  0.946  1.000
  Li14  Li1+  0.948  0.740  0.546  1.000
  Li14  Li1+  0.148  0.340  0.146  1.000
  Li14  Li1+  0.548  0.540  0.746  1.000
  Li14  Li1+  0.948  0.940  0.346  1.000
  Li14  Li1+  0.752  0.946  0.540  1.000
  Li14  Li1+  0.348  0.340  0.346  1.000
  Li14  Li1+  0.152  0.746  0.340  1.000
  Li14  Li1+  0.552  0.746  0.740  1.000
  Li14  Li1+  0.348  0.740  0.346  1.000
  Li14  Li1+  0.552  0.946  0.340  1.000
  Li14  Li1+  0.752  0.146  0.540  1.000
  Li14  Li1+  0.152  0.946  0.340  1.000
  Li14  Li1+  0.548  0.540  0.146  1.000
  Li14  Li1+  0.348  0.540  0.946  1.000
  Li14  Li1+  0.152  0.346  0.140  1.000
  Li14  Li1+  0.152  0.546  0.340  1.000
  Li14  Li1+  0.348  0.940  0.746  1.000
  Li14  Li1+  0.148  0.340  0.746  1.000
  Li14  Li1+  0.552  0.346  0.740  1.000
  Li14  Li1+  0.552  0.146  0.940  1.000
  Li14  Li1+  0.752  0.746  0.140  1.000
  Li14  Li1+  0.748  0.140  0.546  1.000
  Li14  Li1+  0.548  0.940  0.346  1.000
  Li14  Li1+  0.748  0.940  0.546  1.000
  Li14  Li1+  0.552  0.546  0.340  1.000
  Li14  Li1+  0.952  0.346  0.140  1.000
  Li14  Li1+  0.152  0.946  0.540  1.000
  Li14  Li1+  0.548  0.740  0.746  1.000
  Li14  Li1+  0.752  0.146  0.140  1.000
  Li14  Li1+  0.552  0.546  0.940  1.000
  Li14  Li1+  0.148  0.540  0.946  1.000
  Li14  Li1+  0.948  0.340  0.146  1.000
  Li14  Li1+  0.348  0.940  0.546  1.000
  Li14  Li1+  0.552  0.346  0.340  1.000
  Li14  Li1+  0.152  0.346  0.740  1.000
  Li14  Li1+  0.948  0.540  0.946  1.000
  Li14  Li1+  0.552  0.546  0.540  1.000
  Li14  Li1+  0.548  0.140  0.946  1.000
  Li14  Li1+  0.352  0.746  0.140  1.000
  Li14  Li1+  0.748  0.140  0.146  1.000
  Li14  Li1+  0.348  0.340  0.146  1.000
  Li14  Li1+  0.548  0.340  0.746  1.000
  Li14  Li1+  0.552  0.146  0.340  1.000
  Li14  Li1+  0.548  0.340  0.346  1.000
  Li14  Li1+  0.148  0.740  0.146  1.000
  Li14  Li1+  0.952  0.946  0.540  1.000
  Li14  Li1+  0.752  0.546  0.340  1.000
  Li14  Li1+  0.752  0.346  0.140  1.000
  Li14  Li1+  0.952  0.746  0.740  1.000
  Li14  Li1+  0.952  0.346  0.740  1.000
  Li14  Li1+  0.352  0.546  0.740  1.000
  Li14  Li1+  0.348  0.140  0.346  1.000
  Li14  Li1+  0.552  0.746  0.540  1.000
  Li14  Li1+  0.952  0.146  0.740  1.000
  Li14  Li1+  0.752  0.346  0.740  1.000
  Li14  Li1+  0.752  0.546  0.540  1.000
  Li14  Li1+  0.152  0.146  0.940  1.000
  Li14  Li1+  0.948  0.340  0.746  1.000
  Li14  Li1+  0.948  0.740  0.746  1.000
  Li14  Li1+  0.152  0.946  0.940  1.000
  Li14  Li1+  0.948  0.540  0.346  1.000
  Li14  Li1+  0.748  0.340  0.146  1.000
  Li14  Li1+  0.148  0.740  0.346  1.000
  Li14  Li1+  0.152  0.946  0.140  1.000
  Li14  Li1+  0.548  0.540  0.946  1.000
  Li14  Li1+  0.748  0.340  0.746  1.000
  Li14  Li1+  0.148  0.540  0.146  1.000
  Li14  Li1+  0.548  0.140  0.346  1.000
  Li14  Li1+  0.148  0.940  0.346  1.000
  Li14  Li1+  0.752  0.946  0.940  1.000
  Li14  Li1+  0.348  0.540  0.746  1.000
  Li14  Li1+  0.352  0.746  0.940  1.000
  Li14  Li1+  0.948  0.140  0.746  1.000
  Li14  Li1+  0.352  0.346  0.540  1.000
  Li14  Li1+  0.952  0.146  0.340  1.000
  Li14  Li1+  0.552  0.746  0.140  1.000
  Li14  Li1+  0.348  0.140  0.746  1.000
  Li14  Li1+  0.352  0.746  0.540  1.000
  Li14  Li1+  0.148  0.540  0.346  1.000
  Li14  Li1+  0.548  0.740  0.546  1.000
  Li14  Li1+  0.752  0.946  0.340  1.000
  Li14  Li1+  0.948  0.140  0.346  1.000
  Li14  Li1+  0.552  0.946  0.140  1.000
  Li14  Li1+  0.748  0.940  0.946  1.000
  Li14  Li1+  0.748  0.740  0.146  1.000
  Li14  Li1+  0.352  0.146  0.940  1.000
  Li14  Li1+  0.548  0.540  0.546  1.000
  Li14  Li1+  0.352  0.746  0.340  1.000
  Li14  Li1+  0.752  0.546  0.940  1.000
  Li14  Li1+  0.148  0.740  0.746  1.000
  Li14  Li1+  0.548  0.740  0.346  1.000
  Li14  Li1+  0.952  0.946  0.740  1.000
  Li14  Li1+  0.148  0.940  0.946  1.000
  Li14  Li1+  0.748  0.940  0.346  1.000
  Li14  Li1+  0.148  0.340  0.546  1.000
  Li14  Li1+  0.952  0.746  0.140  1.000
  Li14  Li1+  0.752  0.146  0.740  1.000
  Li14  Li1+  0.148  0.140  0.146  1.000
  Li14  Li1+  0.348  0.740  0.946  1.000
  Li14  Li1+  0.148  0.140  0.346  1.000
  Li14  Li1+  0.752  0.746  0.340  1.000
  Li14  Li1+  0.948  0.740  0.146  1.000
  Li14  Li1+  0.952  0.746  0.940  1.000
  Li14  Li1+  0.148  0.740  0.946  1.000
  Li14  Li1+  0.752  0.546  0.740  1.000
  Li14  Li1+  0.748  0.140  0.746  1.000
  Li14  Li1+  0.552  0.146  0.740  1.000
  Li14  Li1+  0.952  0.346  0.340  1.000
  Li14  Li1+  0.752  0.546  0.140  1.000
  Li14  Li1+  0.352  0.146  0.140  1.000
  Li14  Li1+  0.948  0.740  0.946  1.000
  Li14  Li1+  0.148  0.540  0.546  1.000
  Li14  Li1+  0.352  0.546  0.540  1.000
  Li14  Li1+  0.752  0.946  0.140  1.000
  Li14  Li1+  0.352  0.146  0.740  1.000
  Li14  Li1+  0.552  0.146  0.140  1.000
  Li14  Li1+  0.352  0.746  0.740  1.000
  Li14  Li1+  0.948  0.340  0.346  1.000
  Li14  Li1+  0.952  0.546  0.540  1.000
  Li14  Li1+  0.352  0.546  0.940  1.000
  Li14  Li1+  0.348  0.740  0.546  1.000
  Li14  Li1+  0.552  0.946  0.540  1.000
  Li14  Li1+  0.548  0.140  0.746  1.000
  Li14  Li1+  0.152  0.746  0.940  1.000
  Li14  Li1+  0.752  0.346  0.940  1.000
  Li14  Li1+  0.752  0.146  0.340  1.000
  Li14  Li1+  0.752  0.946  0.740  1.000
  Li14  Li1+  0.348  0.540  0.546  1.000
  Li14  Li1+  0.952  0.346  0.940  1.000
  Li14  Li1+  0.752  0.346  0.340  1.000
  Li14  Li1+  0.552  0.346  0.540  1.000
  Li14  Li1+  0.552  0.546  0.140  1.000
  Li14  Li1+  0.748  0.740  0.346  1.000
  Li14  Li1+  0.748  0.340  0.946  1.000
  Li14  Li1+  0.548  0.140  0.146  1.000
  Li14  Li1+  0.948  0.340  0.946  1.000
  Li14  Li1+  0.752  0.746  0.540  1.000
  Li14  Li1+  0.352  0.346  0.740  1.000
  Li14  Li1+  0.952  0.946  0.940  1.000
  Li14  Li1+  0.348  0.140  0.946  1.000
  Li14  Li1+  0.552  0.346  0.140  1.000
  Li14  Li1+  0.352  0.546  0.340  1.000
  Li14  Li1+  0.548  0.340  0.546  1.000
  Li14  Li1+  0.352  0.946  0.140  1.000
  Li14  Li1+  0.948  0.940  0.946  1.000
  Li14  Li1+  0.352  0.346  0.940  1.000
  Li14  Li1+  0.748  0.940  0.746  1.000
  Li15  Li1+  0.242  0.454  0.383  1.000
  Li15  Li1+  0.242  0.054  0.783  1.000
  Li15  Li1+  0.042  0.254  0.183  1.000
  Li15  Li1+  0.442  0.454  0.983  1.000
  Li15  Li1+  0.842  0.054  0.583  1.000
  Li15  Li1+  0.442  0.054  0.183  1.000
  Li15  Li1+  0.442  0.054  0.783  1.000
  Li15  Li1+  0.242  0.054  0.983  1.000
  Li15  Li1+  0.842  0.054  0.383  1.000
  Li15  Li1+  0.442  0.654  0.783  1.000
  Li15  Li1+  0.642  0.654  0.383  1.000
  Li15  Li1+  0.242  0.254  0.183  1.000
  Li15  Li1+  0.642  0.054  0.783  1.000
  Li15  Li1+  0.042  0.054  0.783  1.000
  Li15  Li1+  0.242  0.454  0.183  1.000
  Li15  Li1+  0.642  0.254  0.583  1.000
  Li15  Li1+  0.042  0.654  0.383  1.000
  Li15  Li1+  0.042  0.454  0.183  1.000
  Li15  Li1+  0.842  0.454  0.783  1.000
  Li15  Li1+  0.442  0.454  0.783  1.000
  Li15  Li1+  0.842  0.254  0.583  1.000
  Li15  Li1+  0.042  0.854  0.183  1.000
  Li15  Li1+  0.442  0.854  0.383  1.000
  Li15  Li1+  0.242  0.654  0.783  1.000
  Li15  Li1+  0.642  0.654  0.183  1.000
  Li15  Li1+  0.242  0.054  0.583  1.000
  Li15  Li1+  0.242  0.054  0.183  1.000
  Li15  Li1+  0.442  0.054  0.983  1.000
  Li15  Li1+  0.842  0.854  0.783  1.000
  Li15  Li1+  0.042  0.654  0.983  1.000
  Li15  Li1+  0.842  0.454  0.183  1.000
  Li15  Li1+  0.842  0.654  0.183  1.000
  Li15  Li1+  0.242  0.454  0.783  1.000
  Li15  Li1+  0.442  0.254  0.983  1.000
  Li15  Li1+  0.242  0.254  0.383  1.000
  Li15  Li1+  0.442  0.254  0.583  1.000
  Li15  Li1+  0.642  0.454  0.183  1.000
  Li15  Li1+  0.442  0.254  0.183  1.000
  Li15  Li1+  0.042  0.654  0.183  1.000
  Li15  Li1+  0.642  0.054  0.583  1.000
  Li15  Li1+  0.642  0.854  0.583  1.000
  Li15  Li1+  0.442  0.254  0.383  1.000
  Li15  Li1+  0.042  0.054  0.383  1.000
  Li15  Li1+  0.842  0.654  0.583  1.000
  Li15  Li1+  0.242  0.654  0.183  1.000
  Li15  Li1+  0.842  0.654  0.983  1.000
  Li15  Li1+  0.042  0.654  0.583  1.000
  Li15  Li1+  0.442  0.654  0.583  1.000
  Li15  Li1+  0.642  0.854  0.183  1.000
  Li15  Li1+  0.042  0.254  0.983  1.000
  Li15  Li1+  0.042  0.454  0.383  1.000
  Li15  Li1+  0.442  0.654  0.183  1.000
  Li15  Li1+  0.242  0.854  0.383  1.000
  Li15  Li1+  0.642  0.254  0.983  1.000
  Li15  Li1+  0.842  0.254  0.383  1.000
  Li15  Li1+  0.042  0.654  0.783  1.000
  Li15  Li1+  0.642  0.054  0.383  1.000
  Li15  Li1+  0.442  0.054  0.383  1.000
  Li15  Li1+  0.642  0.454  0.983  1.000
  Li15  Li1+  0.642  0.254  0.383  1.000
  Li15  Li1+  0.242  0.854  0.983  1.000
  Li15  Li1+  0.442  0.654  0.383  1.000
  Li15  Li1+  0.642  0.454  0.783  1.000
  Li15  Li1+  0.042  0.454  0.983  1.000
  Li15  Li1+  0.042  0.854  0.783  1.000
  Li15  Li1+  0.442  0.854  0.783  1.000
  Li15  Li1+  0.642  0.054  0.183  1.000
  Li15  Li1+  0.442  0.654  0.983  1.000
  Li15  Li1+  0.842  0.454  0.583  1.000
  Li15  Li1+  0.442  0.854  0.983  1.000
  Li15  Li1+  0.642  0.654  0.583  1.000
  Li15  Li1+  0.042  0.454  0.583  1.000
  Li15  Li1+  0.042  0.254  0.383  1.000
  Li15  Li1+  0.442  0.254  0.783  1.000
  Li15  Li1+  0.842  0.254  0.983  1.000
  Li15  Li1+  0.642  0.854  0.783  1.000
  Li15  Li1+  0.642  0.654  0.983  1.000
  Li15  Li1+  0.842  0.854  0.983  1.000
  Li15  Li1+  0.042  0.254  0.783  1.000
  Li15  Li1+  0.042  0.854  0.983  1.000
  Li15  Li1+  0.042  0.854  0.383  1.000
  Li15  Li1+  0.242  0.854  0.783  1.000
  Li15  Li1+  0.842  0.254  0.183  1.000
  Li15  Li1+  0.242  0.854  0.583  1.000
  Li15  Li1+  0.642  0.254  0.183  1.000
  Li15  Li1+  0.242  0.454  0.983  1.000
  Li15  Li1+  0.242  0.254  0.783  1.000
  Li15  Li1+  0.042  0.054  0.983  1.000
  Li15  Li1+  0.242  0.454  0.583  1.000
  Li15  Li1+  0.442  0.454  0.583  1.000
  Li15  Li1+  0.642  0.654  0.783  1.000
  Li15  Li1+  0.042  0.054  0.183  1.000
  Li15  Li1+  0.242  0.654  0.383  1.000
  Li15  Li1+  0.642  0.454  0.383  1.000
  Li15  Li1+  0.642  0.254  0.783  1.000
  Li15  Li1+  0.242  0.654  0.983  1.000
  Li15  Li1+  0.842  0.054  0.983  1.000
  Li15  Li1+  0.842  0.854  0.583  1.000
  Li15  Li1+  0.642  0.854  0.983  1.000
  Li15  Li1+  0.042  0.854  0.583  1.000
  Li15  Li1+  0.242  0.254  0.583  1.000
  Li15  Li1+  0.042  0.454  0.783  1.000
  Li15  Li1+  0.842  0.654  0.783  1.000
  Li15  Li1+  0.842  0.654  0.383  1.000
  Li15  Li1+  0.842  0.254  0.783  1.000
  Li15  Li1+  0.442  0.054  0.583  1.000
  Li15  Li1+  0.242  0.654  0.583  1.000
  Li15  Li1+  0.642  0.454  0.583  1.000
  Li15  Li1+  0.842  0.854  0.183  1.000
  Li15  Li1+  0.842  0.054  0.783  1.000
  Li15  Li1+  0.042  0.254  0.583  1.000
  Li15  Li1+  0.642  0.854  0.383  1.000
  Li15  Li1+  0.842  0.454  0.383  1.000
  Li15  Li1+  0.242  0.854  0.183  1.000
  Li15  Li1+  0.442  0.854  0.183  1.000
  Li15  Li1+  0.842  0.054  0.183  1.000
  Li15  Li1+  0.642  0.054  0.983  1.000
  Li15  Li1+  0.442  0.454  0.183  1.000
  Li16  Li1+  0.350  0.552  0.603  1.000
  Li16  Li1+  0.350  0.952  0.803  1.000
  Li16  Li1+  0.950  0.152  0.203  1.000
  Li16  Li1+  0.750  0.352  0.003  1.000
  Li16  Li1+  0.750  0.552  0.603  1.000
  Li16  Li1+  0.950  0.752  0.603  1.000
  Li16  Li1+  0.950  0.552  0.203  1.000
  Li16  Li1+  0.150  0.352  0.403  1.000
  Li16  Li1+  0.350  0.752  0.403  1.000
  Li16  Li1+  0.550  0.352  0.603  1.000
  Li16  Li1+  0.150  0.952  0.203  1.000
  Li16  Li1+  0.750  0.352  0.603  1.000
  Li16  Li1+  0.150  0.752  0.603  1.000
  Li16  Li1+  0.750  0.752  0.403  1.000
  Li16  Li1+  0.750  0.952  0.003  1.000
  Li16  Li1+  0.550  0.552  0.803  1.000
  Li16  Li1+  0.350  0.952  0.203  1.000
  Li16  Li1+  0.750  0.552  0.803  1.000
  Li16  Li1+  0.550  0.952  0.003  1.000
  Li16  Li1+  0.750  0.952  0.403  1.000
  Li16  Li1+  0.350  0.952  0.403  1.000
  Li16  Li1+  0.550  0.552  0.003  1.000
  Li16  Li1+  0.350  0.552  0.803  1.000
  Li16  Li1+  0.150  0.352  0.003  1.000
  Li16  Li1+  0.150  0.352  0.603  1.000
  Li16  Li1+  0.150  0.552  0.203  1.000
  Li16  Li1+  0.550  0.552  0.603  1.000
  Li16  Li1+  0.550  0.752  0.603  1.000
  Li16  Li1+  0.350  0.952  0.603  1.000
  Li16  Li1+  0.150  0.552  0.403  1.000
  Li16  Li1+  0.750  0.152  0.803  1.000
  Li16  Li1+  0.950  0.352  0.403  1.000
  Li16  Li1+  0.150  0.752  0.803  1.000
  Li16  Li1+  0.950  0.552  0.603  1.000
  Li16  Li1+  0.150  0.952  0.003  1.000
  Li16  Li1+  0.750  0.752  0.803  1.000
  Li16  Li1+  0.350  0.152  0.803  1.000
  Li16  Li1+  0.550  0.152  0.403  1.000
  Li16  Li1+  0.750  0.752  0.603  1.000
  Li16  Li1+  0.350  0.352  0.003  1.000
  Li16  Li1+  0.950  0.552  0.003  1.000
  Li16  Li1+  0.350  0.152  0.603  1.000
  Li16  Li1+  0.350  0.952  0.003  1.000
  Li16  Li1+  0.750  0.952  0.603  1.000
  Li16  Li1+  0.150  0.752  0.203  1.000
  Li16  Li1+  0.150  0.552  0.803  1.000
  Li16  Li1+  0.750  0.352  0.403  1.000
  Li16  Li1+  0.550  0.952  0.203  1.000
  Li16  Li1+  0.750  0.552  0.403  1.000
  Li16  Li1+  0.150  0.352  0.203  1.000
  Li16  Li1+  0.150  0.552  0.603  1.000
  Li16  Li1+  0.750  0.152  0.603  1.000
  Li16  Li1+  0.950  0.752  0.003  1.000
  Li16  Li1+  0.950  0.952  0.603  1.000
  Li16  Li1+  0.750  0.552  0.203  1.000
  Li16  Li1+  0.950  0.752  0.403  1.000
  Li16  Li1+  0.750  0.752  0.203  1.000
  Li16  Li1+  0.950  0.352  0.203  1.000
  Li16  Li1+  0.150  0.152  0.203  1.000
  Li16  Li1+  0.350  0.152  0.003  1.000
  Li16  Li1+  0.550  0.152  0.003  1.000
  Li16  Li1+  0.350  0.752  0.203  1.000
  Li16  Li1+  0.150  0.552  0.003  1.000
  Li16  Li1+  0.350  0.552  0.403  1.000
  Li16  Li1+  0.950  0.752  0.803  1.000
  Li16  Li1+  0.150  0.152  0.403  1.000
  Li16  Li1+  0.150  0.952  0.403  1.000
  Li16  Li1+  0.550  0.152  0.603  1.000
  Li16  Li1+  0.350  0.152  0.203  1.000
  Li16  Li1+  0.150  0.152  0.003  1.000
  Li16  Li1+  0.550  0.352  0.803  1.000
  Li16  Li1+  0.150  0.752  0.003  1.000
  Li16  Li1+  0.750  0.152  0.403  1.000
  Li16  Li1+  0.550  0.752  0.403  1.000
  Li16  Li1+  0.350  0.752  0.803  1.000
  Li16  Li1+  0.550  0.552  0.203  1.000
  Li16  Li1+  0.550  0.752  0.203  1.000
  Li16  Li1+  0.350  0.352  0.603  1.000
  Li16  Li1+  0.150  0.152  0.803  1.000
  Li16  Li1+  0.550  0.752  0.003  1.000
  Li16  Li1+  0.950  0.352  0.803  1.000
  Li16  Li1+  0.950  0.552  0.403  1.000
  Li16  Li1+  0.550  0.152  0.803  1.000
  Li16  Li1+  0.550  0.952  0.403  1.000
  Li16  Li1+  0.750  0.152  0.203  1.000
  Li16  Li1+  0.750  0.952  0.803  1.000
  Li16  Li1+  0.950  0.352  0.003  1.000
  Li16  Li1+  0.750  0.752  0.003  1.000
  Li16  Li1+  0.550  0.752  0.803  1.000
  Li16  Li1+  0.550  0.952  0.603  1.000
  Li16  Li1+  0.750  0.352  0.803  1.000
  Li16  Li1+  0.550  0.352  0.403  1.000
  Li16  Li1+  0.350  0.552  0.203  1.000
  Li16  Li1+  0.550  0.552  0.403  1.000
  Li16  Li1+  0.750  0.152  0.003  1.000
  Li16  Li1+  0.550  0.952  0.803  1.000
  Li16  Li1+  0.350  0.352  0.203  1.000
  Li16  Li1+  0.150  0.952  0.803  1.000
  Li16  Li1+  0.150  0.152  0.603  1.000
  Li16  Li1+  0.550  0.352  0.003  1.000
  Li16  Li1+  0.550  0.352  0.203  1.000
  Li16  Li1+  0.350  0.352  0.803  1.000
  Li16  Li1+  0.150  0.952  0.603  1.000
  Li16  Li1+  0.150  0.352  0.803  1.000
  Li16  Li1+  0.950  0.152  0.803  1.000
  Li16  Li1+  0.950  0.552  0.803  1.000
  Li16  Li1+  0.950  0.952  0.803  1.000
  Li16  Li1+  0.750  0.952  0.203  1.000
  Li16  Li1+  0.350  0.352  0.403  1.000
  Li16  Li1+  0.350  0.752  0.603  1.000
  Li16  Li1+  0.750  0.552  0.003  1.000
  Li16  Li1+  0.950  0.152  0.003  1.000
  Li16  Li1+  0.150  0.752  0.403  1.000
  Li16  Li1+  0.950  0.152  0.603  1.000
  Li16  Li1+  0.350  0.152  0.403  1.000
  Li16  Li1+  0.350  0.752  0.003  1.000
  Li16  Li1+  0.550  0.152  0.203  1.000
  Li16  Li1+  0.950  0.752  0.203  1.000
  Li16  Li1+  0.950  0.152  0.403  1.000
  Li16  Li1+  0.950  0.352  0.603  1.000
  Li17  Li1+  0.050  0.340  0.294  1.000
  Li17  Li1+  0.850  0.340  0.294  1.000
  Li17  Li1+  0.850  0.140  0.694  1.000
  Li17  Li1+  0.250  0.340  0.894  1.000
  Li17  Li1+  0.450  0.940  0.494  1.000
  Li17  Li1+  0.050  0.940  0.894  1.000
  Li17  Li1+  0.250  0.340  0.294  1.000
  Li17  Li1+  0.850  0.740  0.894  1.000
  Li17  Li1+  0.850  0.540  0.894  1.000
  Li17  Li1+  0.450  0.340  0.094  1.000
  Li17  Li1+  0.450  0.140  0.494  1.000
  Li17  Li1+  0.650  0.940  0.094  1.000
  Li17  Li1+  0.850  0.340  0.094  1.000
  Li17  Li1+  0.250  0.940  0.694  1.000
  Li17  Li1+  0.850  0.140  0.894  1.000
  Li17  Li1+  0.850  0.940  0.294  1.000
  Li17  Li1+  0.650  0.740  0.894  1.000
  Li17  Li1+  0.650  0.540  0.094  1.000
  Li17  Li1+  0.250  0.940  0.894  1.000
  Li17  Li1+  0.850  0.940  0.694  1.000
  Li17  Li1+  0.250  0.540  0.694  1.000
  Li17  Li1+  0.050  0.140  0.694  1.000
  Li17  Li1+  0.050  0.540  0.294  1.000
  Li17  Li1+  0.050  0.740  0.494  1.000
  Li17  Li1+  0.650  0.340  0.294  1.000
  Li17  Li1+  0.450  0.340  0.294  1.000
  Li17  Li1+  0.450  0.940  0.094  1.000
  Li17  Li1+  0.450  0.540  0.294  1.000
  Li17  Li1+  0.050  0.140  0.894  1.000
  Li17  Li1+  0.450  0.340  0.494  1.000
  Li17  Li1+  0.250  0.340  0.694  1.000
  Li17  Li1+  0.250  0.940  0.294  1.000
  Li17  Li1+  0.250  0.940  0.094  1.000
  Li17  Li1+  0.850  0.540  0.094  1.000
  Li17  Li1+  0.250  0.340  0.094  1.000
  Li17  Li1+  0.050  0.340  0.494  1.000
  Li17  Li1+  0.650  0.740  0.094  1.000
  Li17  Li1+  0.050  0.340  0.094  1.000
  Li17  Li1+  0.850  0.740  0.294  1.000
  Li17  Li1+  0.250  0.540  0.094  1.000
  Li17  Li1+  0.650  0.340  0.094  1.000
  Li17  Li1+  0.450  0.940  0.694  1.000
  Li17  Li1+  0.050  0.940  0.494  1.000
  Li17  Li1+  0.050  0.540  0.694  1.000
  Li17  Li1+  0.050  0.740  0.894  1.000
  Li17  Li1+  0.450  0.540  0.694  1.000
  Li17  Li1+  0.250  0.140  0.494  1.000
  Li17  Li1+  0.650  0.340  0.894  1.000
  Li17  Li1+  0.650  0.940  0.894  1.000
  Li17  Li1+  0.250  0.540  0.494  1.000
  Li17  Li1+  0.850  0.540  0.694  1.000
  Li17  Li1+  0.250  0.140  0.694  1.000
  Li17  Li1+  0.050  0.940  0.694  1.000
  Li17  Li1+  0.250  0.140  0.894  1.000
  Li17  Li1+  0.250  0.540  0.294  1.000
  Li17  Li1+  0.650  0.940  0.494  1.000
  Li17  Li1+  0.450  0.140  0.694  1.000
  Li17  Li1+  0.250  0.140  0.294  1.000
  Li17  Li1+  0.850  0.740  0.694  1.000
  Li17  Li1+  0.450  0.940  0.894  1.000
  Li17  Li1+  0.050  0.940  0.294  1.000
  Li17  Li1+  0.850  0.340  0.894  1.000
  Li17  Li1+  0.650  0.140  0.894  1.000
  Li17  Li1+  0.450  0.340  0.694  1.000
  Li17  Li1+  0.050  0.540  0.094  1.000
  Li17  Li1+  0.650  0.140  0.694  1.000
  Li17  Li1+  0.650  0.740  0.494  1.000
  Li17  Li1+  0.450  0.140  0.294  1.000
  Li17  Li1+  0.450  0.740  0.894  1.000
  Li17  Li1+  0.650  0.140  0.094  1.000
  Li17  Li1+  0.050  0.140  0.294  1.000
  Li17  Li1+  0.450  0.540  0.894  1.000
  Li17  Li1+  0.450  0.540  0.494  1.000
  Li17  Li1+  0.050  0.740  0.694  1.000
  Li17  Li1+  0.250  0.740  0.094  1.000
  Li17  Li1+  0.850  0.940  0.894  1.000
  Li17  Li1+  0.650  0.140  0.294  1.000
  Li17  Li1+  0.450  0.940  0.294  1.000
  Li17  Li1+  0.250  0.740  0.894  1.000
  Li17  Li1+  0.050  0.540  0.494  1.000
  Li17  Li1+  0.850  0.940  0.494  1.000
  Li17  Li1+  0.650  0.140  0.494  1.000
  Li17  Li1+  0.650  0.340  0.694  1.000
  Li17  Li1+  0.050  0.740  0.294  1.000
  Li17  Li1+  0.250  0.740  0.694  1.000
  Li17  Li1+  0.650  0.540  0.294  1.000
  Li17  Li1+  0.850  0.740  0.094  1.000
  Li17  Li1+  0.650  0.740  0.294  1.000
  Li17  Li1+  0.250  0.540  0.894  1.000
  Li17  Li1+  0.450  0.340  0.894  1.000
  Li17  Li1+  0.850  0.340  0.694  1.000
  Li17  Li1+  0.450  0.740  0.294  1.000
  Li17  Li1+  0.850  0.540  0.494  1.000
  Li17  Li1+  0.650  0.940  0.294  1.000
  Li17  Li1+  0.250  0.740  0.494  1.000
  Li17  Li1+  0.050  0.940  0.094  1.000
  Li17  Li1+  0.650  0.540  0.894  1.000
  Li17  Li1+  0.050  0.340  0.694  1.000
  Li17  Li1+  0.450  0.740  0.694  1.000
  Li17  Li1+  0.050  0.140  0.094  1.000
  Li17  Li1+  0.450  0.140  0.894  1.000
  Li17  Li1+  0.650  0.540  0.494  1.000
  Li17  Li1+  0.650  0.740  0.694  1.000
  Li17  Li1+  0.450  0.740  0.494  1.000
  Li17  Li1+  0.650  0.540  0.694  1.000
  Li17  Li1+  0.850  0.140  0.294  1.000
  Li17  Li1+  0.450  0.540  0.094  1.000
  Li17  Li1+  0.650  0.940  0.694  1.000
  Li17  Li1+  0.850  0.340  0.494  1.000
  Li17  Li1+  0.850  0.740  0.494  1.000
  Li17  Li1+  0.050  0.540  0.894  1.000
  Li17  Li1+  0.250  0.140  0.094  1.000
  Li17  Li1+  0.650  0.340  0.494  1.000
  Li17  Li1+  0.250  0.740  0.294  1.000
  Li17  Li1+  0.450  0.140  0.094  1.000
  Li17  Li1+  0.250  0.340  0.494  1.000
  Li17  Li1+  0.050  0.740  0.094  1.000
  Li17  Li1+  0.850  0.140  0.494  1.000
  Li18  Li1+  0.954  0.844  0.322  1.000
  Li18  Li1+  0.554  0.244  0.522  1.000
  Li18  Li1+  0.154  0.044  0.322  1.000
  Li18  Li1+  0.354  0.444  0.322  1.000
  Li18  Li1+  0.354  0.844  0.322  1.000
  Li18  Li1+  0.954  0.844  0.722  1.000
  Li18  Li1+  0.354  0.444  0.522  1.000
  Li18  Li1+  0.354  0.644  0.522  1.000
  Li18  Li1+  0.954  0.044  0.722  1.000
  Li18  Li1+  0.954  0.044  0.922  1.000
  Li18  Li1+  0.954  0.044  0.522  1.000
  Li18  Li1+  0.154  0.444  0.722  1.000
  Li18  Li1+  0.754  0.844  0.322  1.000
  Li18  Li1+  0.554  0.844  0.722  1.000
  Li18  Li1+  0.754  0.844  0.722  1.000
  Li18  Li1+  0.954  0.444  0.122  1.000
  Li18  Li1+  0.554  0.444  0.122  1.000
  Li18  Li1+  0.154  0.244  0.722  1.000
  Li18  Li1+  0.754  0.244  0.122  1.000
  Li18  Li1+  0.154  0.644  0.522  1.000
  Li18  Li1+  0.554  0.044  0.322  1.000
  Li18  Li1+  0.354  0.644  0.722  1.000
  Li18  Li1+  0.154  0.044  0.722  1.000
  Li18  Li1+  0.554  0.044  0.722  1.000
  Li18  Li1+  0.954  0.644  0.322  1.000
  Li18  Li1+  0.754  0.644  0.722  1.000
  Li18  Li1+  0.554  0.444  0.522  1.000
  Li18  Li1+  0.554  0.244  0.722  1.000
  Li18  Li1+  0.154  0.044  0.922  1.000
  Li18  Li1+  0.754  0.244  0.922  1.000
  Li18  Li1+  0.354  0.044  0.122  1.000
  Li18  Li1+  0.554  0.444  0.722  1.000
  Li18  Li1+  0.154  0.444  0.922  1.000
  Li18  Li1+  0.954  0.444  0.722  1.000
  Li18  Li1+  0.754  0.044  0.922  1.000
  Li18  Li1+  0.554  0.844  0.922  1.000
  Li18  Li1+  0.154  0.844  0.922  1.000
  Li18  Li1+  0.754  0.444  0.522  1.000
  Li18  Li1+  0.354  0.644  0.122  1.000
  Li18  Li1+  0.354  0.244  0.122  1.000
  Li18  Li1+  0.754  0.844  0.122  1.000
  Li18  Li1+  0.954  0.644  0.722  1.000
  Li18  Li1+  0.554  0.644  0.122  1.000
  Li18  Li1+  0.754  0.044  0.722  1.000
  Li18  Li1+  0.754  0.044  0.122  1.000
  Li18  Li1+  0.354  0.244  0.522  1.000
  Li18  Li1+  0.754  0.644  0.922  1.000
  Li18  Li1+  0.754  0.044  0.322  1.000
  Li18  Li1+  0.954  0.244  0.922  1.000
  Li18  Li1+  0.354  0.844  0.522  1.000
  Li18  Li1+  0.754  0.044  0.522  1.000
  Li18  Li1+  0.754  0.844  0.922  1.000
  Li18  Li1+  0.554  0.444  0.322  1.000
  Li18  Li1+  0.354  0.644  0.322  1.000
  Li18  Li1+  0.154  0.644  0.122  1.000
  Li18  Li1+  0.354  0.444  0.922  1.000
  Li18  Li1+  0.554  0.844  0.322  1.000
  Li18  Li1+  0.154  0.844  0.522  1.000
  Li18  Li1+  0.554  0.644  0.922  1.000
  Li18  Li1+  0.754  0.244  0.722  1.000
  Li18  Li1+  0.954  0.844  0.122  1.000
  Li18  Li1+  0.354  0.644  0.922  1.000
  Li18  Li1+  0.154  0.844  0.322  1.000
  Li18  Li1+  0.754  0.644  0.122  1.000
  Li18  Li1+  0.954  0.844  0.922  1.000
  Li18  Li1+  0.354  0.244  0.922  1.000
  Li18  Li1+  0.954  0.844  0.522  1.000
  Li18  Li1+  0.554  0.044  0.922  1.000
  Li18  Li1+  0.954  0.644  0.122  1.000
  Li18  Li1+  0.154  0.244  0.322  1.000
  Li18  Li1+  0.554  0.444  0.922  1.000
  Li18  Li1+  0.954  0.444  0.522  1.000
  Li18  Li1+  0.354  0.244  0.322  1.000
  Li18  Li1+  0.954  0.244  0.722  1.000
  Li18  Li1+  0.154  0.844  0.122  1.000
  Li18  Li1+  0.154  0.044  0.122  1.000
  Li18  Li1+  0.554  0.044  0.122  1.000
  Li18  Li1+  0.354  0.044  0.922  1.000
  Li18  Li1+  0.154  0.444  0.522  1.000
  Li18  Li1+  0.754  0.844  0.522  1.000
  Li18  Li1+  0.954  0.044  0.122  1.000
  Li18  Li1+  0.154  0.644  0.922  1.000
  Li18  Li1+  0.554  0.644  0.722  1.000
  Li18  Li1+  0.754  0.644  0.522  1.000
  Li18  Li1+  0.554  0.644  0.322  1.000
  Li18  Li1+  0.354  0.244  0.722  1.000
  Li18  Li1+  0.754  0.444  0.922  1.000
  Li18  Li1+  0.154  0.644  0.322  1.000
  Li18  Li1+  0.154  0.844  0.722  1.000
  Li18  Li1+  0.154  0.244  0.922  1.000
  Li18  Li1+  0.954  0.644  0.522  1.000
  Li18  Li1+  0.554  0.244  0.122  1.000
  Li18  Li1+  0.354  0.444  0.722  1.000
  Li18  Li1+  0.354  0.844  0.922  1.000
  Li18  Li1+  0.354  0.844  0.722  1.000
  Li18  Li1+  0.754  0.244  0.522  1.000
  Li18  Li1+  0.954  0.244  0.522  1.000
  Li18  Li1+  0.554  0.044  0.522  1.000
  Li18  Li1+  0.554  0.244  0.922  1.000
  Li18  Li1+  0.554  0.844  0.522  1.000
  Li18  Li1+  0.354  0.044  0.722  1.000
  Li18  Li1+  0.754  0.644  0.322  1.000
  Li18  Li1+  0.354  0.044  0.322  1.000
  Li18  Li1+  0.954  0.444  0.322  1.000
  Li18  Li1+  0.754  0.444  0.322  1.000
  Li18  Li1+  0.154  0.444  0.122  1.000
  Li18  Li1+  0.354  0.444  0.122  1.000
  Li18  Li1+  0.754  0.444  0.722  1.000
  Li18  Li1+  0.154  0.644  0.722  1.000
  Li18  Li1+  0.954  0.244  0.322  1.000
  Li18  Li1+  0.954  0.444  0.922  1.000
  Li18  Li1+  0.954  0.044  0.322  1.000
  Li18  Li1+  0.354  0.044  0.522  1.000
  Li18  Li1+  0.154  0.044  0.522  1.000
  Li18  Li1+  0.554  0.244  0.322  1.000
  Li18  Li1+  0.354  0.844  0.122  1.000
  Li18  Li1+  0.754  0.444  0.122  1.000
  Li18  Li1+  0.154  0.244  0.522  1.000
  Li18  Li1+  0.554  0.844  0.122  1.000
  Li18  Li1+  0.754  0.244  0.322  1.000
  Li18  Li1+  0.954  0.244  0.122  1.000
  Li19  Li1+  0.848  0.842  0.728  1.000
  Li19  Li1+  0.448  0.042  0.128  1.000
  Li19  Li1+  0.648  0.042  0.328  1.000
  Li19  Li1+  0.248  0.042  0.128  1.000
  Li19  Li1+  0.848  0.242  0.728  1.000
  Li19  Li1+  0.048  0.242  0.928  1.000
  Li19  Li1+  0.648  0.042  0.928  1.000
  Li19  Li1+  0.448  0.842  0.528  1.000
  Li19  Li1+  0.048  0.242  0.328  1.000
  Li19  Li1+  0.048  0.842  0.728  1.000
  Li19  Li1+  0.648  0.042  0.728  1.000
  Li19  Li1+  0.648  0.042  0.528  1.000
  Li19  Li1+  0.448  0.642  0.128  1.000
  Li19  Li1+  0.048  0.642  0.928  1.000
  Li19  Li1+  0.248  0.242  0.528  1.000
  Li19  Li1+  0.848  0.042  0.928  1.000
  Li19  Li1+  0.848  0.242  0.528  1.000
  Li19  Li1+  0.448  0.442  0.528  1.000
  Li19  Li1+  0.448  0.442  0.328  1.000
  Li19  Li1+  0.848  0.242  0.328  1.000
  Li19  Li1+  0.848  0.242  0.128  1.000
  Li19  Li1+  0.248  0.842  0.528  1.000
  Li19  Li1+  0.448  0.642  0.528  1.000
  Li19  Li1+  0.848  0.442  0.528  1.000
  Li19  Li1+  0.048  0.642  0.328  1.000
  Li19  Li1+  0.648  0.242  0.928  1.000
  Li19  Li1+  0.048  0.442  0.128  1.000
  Li19  Li1+  0.048  0.042  0.528  1.000
  Li19  Li1+  0.048  0.042  0.328  1.000
  Li19  Li1+  0.448  0.642  0.928  1.000
  Li19  Li1+  0.448  0.642  0.728  1.000
  Li19  Li1+  0.848  0.042  0.128  1.000
  Li19  Li1+  0.848  0.642  0.128  1.000
  Li19  Li1+  0.648  0.442  0.728  1.000
  Li19  Li1+  0.248  0.042  0.528  1.000
  Li19  Li1+  0.048  0.242  0.128  1.000
  Li19  Li1+  0.048  0.642  0.128  1.000
  Li19  Li1+  0.448  0.042  0.928  1.000
  Li19  Li1+  0.648  0.842  0.728  1.000
  Li19  Li1+  0.248  0.642  0.728  1.000
  Li19  Li1+  0.048  0.842  0.528  1.000
  Li19  Li1+  0.048  0.442  0.728  1.000
  Li19  Li1+  0.848  0.842  0.128  1.000
  Li19  Li1+  0.648  0.642  0.128  1.000
  Li19  Li1+  0.648  0.642  0.728  1.000
  Li19  Li1+  0.648  0.442  0.928  1.000
  Li19  Li1+  0.248  0.442  0.128  1.000
  Li19  Li1+  0.448  0.042  0.528  1.000
  Li19  Li1+  0.648  0.242  0.728  1.000
  Li19  Li1+  0.448  0.442  0.728  1.000
  Li19  Li1+  0.848  0.442  0.328  1.000
  Li19  Li1+  0.248  0.842  0.328  1.000
  Li19  Li1+  0.248  0.442  0.928  1.000
  Li19  Li1+  0.048  0.042  0.728  1.000
  Li19  Li1+  0.448  0.842  0.728  1.000
  Li19  Li1+  0.048  0.442  0.328  1.000
  Li19  Li1+  0.448  0.242  0.728  1.000
  Li19  Li1+  0.848  0.842  0.528  1.000
  Li19  Li1+  0.048  0.842  0.328  1.000
  Li19  Li1+  0.048  0.442  0.528  1.000
  Li19  Li1+  0.448  0.442  0.128  1.000
  Li19  Li1+  0.648  0.442  0.528  1.000
  Li19  Li1+  0.848  0.842  0.928  1.000
  Li19  Li1+  0.448  0.842  0.328  1.000
  Li19  Li1+  0.248  0.042  0.928  1.000
  Li19  Li1+  0.848  0.042  0.328  1.000
  Li19  Li1+  0.848  0.642  0.528  1.000
  Li19  Li1+  0.448  0.242  0.928  1.000
  Li19  Li1+  0.648  0.842  0.528  1.000
  Li19  Li1+  0.048  0.042  0.928  1.000
  Li19  Li1+  0.848  0.442  0.928  1.000
  Li19  Li1+  0.048  0.442  0.928  1.000
  Li19  Li1+  0.448  0.242  0.128  1.000
  Li19  Li1+  0.648  0.442  0.328  1.000
  Li19  Li1+  0.448  0.642  0.328  1.000
  Li19  Li1+  0.848  0.442  0.128  1.000
  Li19  Li1+  0.648  0.642  0.928  1.000
  Li19  Li1+  0.648  0.642  0.528  1.000
  Li19  Li1+  0.248  0.442  0.728  1.000
  Li19  Li1+  0.048  0.042  0.128  1.000
  Li19  Li1+  0.448  0.042  0.328  1.000
  Li19  Li1+  0.648  0.242  0.528  1.000
  Li19  Li1+  0.248  0.442  0.328  1.000
  Li19  Li1+  0.648  0.842  0.328  1.000
  Li19  Li1+  0.248  0.242  0.728  1.000
  Li19  Li1+  0.448  0.842  0.928  1.000
  Li19  Li1+  0.648  0.842  0.928  1.000
  Li19  Li1+  0.248  0.042  0.728  1.000
  Li19  Li1+  0.648  0.642  0.328  1.000
  Li19  Li1+  0.248  0.042  0.328  1.000
  Li19  Li1+  0.248  0.842  0.728  1.000
  Li19  Li1+  0.048  0.242  0.528  1.000
  Li19  Li1+  0.848  0.042  0.528  1.000
  Li19  Li1+  0.848  0.642  0.928  1.000
  Li19  Li1+  0.248  0.242  0.328  1.000
  Li19  Li1+  0.248  0.242  0.128  1.000
  Li19  Li1+  0.848  0.242  0.928  1.000
  Li19  Li1+  0.048  0.842  0.928  1.000
  Li19  Li1+  0.248  0.442  0.528  1.000
  Li19  Li1+  0.648  0.242  0.328  1.000
  Li19  Li1+  0.048  0.642  0.728  1.000
  Li19  Li1+  0.448  0.242  0.328  1.000
  Li19  Li1+  0.248  0.642  0.328  1.000
  Li19  Li1+  0.248  0.642  0.128  1.000
  Li19  Li1+  0.048  0.642  0.528  1.000
  Li19  Li1+  0.248  0.242  0.928  1.000
  Li19  Li1+  0.648  0.042  0.128  1.000
  Li19  Li1+  0.448  0.042  0.728  1.000
  Li19  Li1+  0.448  0.842  0.128  1.000
  Li19  Li1+  0.848  0.442  0.728  1.000
  Li19  Li1+  0.848  0.842  0.328  1.000
  Li19  Li1+  0.248  0.842  0.128  1.000
  Li19  Li1+  0.448  0.442  0.928  1.000
  Li19  Li1+  0.048  0.242  0.728  1.000
  Li19  Li1+  0.848  0.642  0.328  1.000
  Li19  Li1+  0.648  0.442  0.128  1.000
  Li19  Li1+  0.448  0.242  0.528  1.000
  Li19  Li1+  0.248  0.642  0.528  1.000
  Li19  Li1+  0.648  0.242  0.128  1.000
  Li19  Li1+  0.248  0.842  0.928  1.000
  Li19  Li1+  0.848  0.042  0.728  1.000

#end of data
