data_generated-by-softBV

_chemical_name_systematic         ''
_cell_length_a                    43.760
_cell_length_b                    43.814
_cell_length_c                    60.812
_cell_angle_alpha                 90.000
_cell_angle_beta                  90.000
_cell_angle_gamma                 90.000
_cell_volume                      116594.874
_cell_formula_units_Z             0
_symmetry_space_group_name_H-M    'P 1'
_symmetry_Int_Tables_number       1

loop_
  _symmetry_equiv_pos_site_id
  _symmetry_equiv_pos_as_xyz
    1    'x, y, z'

loop_
  _atom_type_symbol
  _atom_type_oxidation_number
  Li1+     1

loop_
  _atom_site_label
  _atom_site_type_symbol
  _atom_site_fract_x
  _atom_site_fract_y
  _atom_site_fract_z
  _atom_site_occupancy
  Li_i1  Li1+  0.004  0.000  0.000  0.001
  Li_i1  Li1+  0.196  0.100  0.100  0.001
  Li_i1  Li1+  0.004  0.000  0.200  0.001
  Li_i1  Li1+  0.196  0.100  0.300  0.001
  Li_i1  Li1+  0.004  0.000  0.400  0.001
  Li_i1  Li1+  0.196  0.100  0.500  0.001
  Li_i1  Li1+  0.004  0.000  0.600  0.001
  Li_i1  Li1+  0.196  0.100  0.700  0.001
  Li_i1  Li1+  0.004  0.000  0.800  0.001
  Li_i1  Li1+  0.196  0.100  0.900  0.001
  Li_i1  Li1+  0.004  0.200  0.000  0.001
  Li_i1  Li1+  0.196  0.300  0.100  0.001
  Li_i1  Li1+  0.004  0.200  0.200  0.001
  Li_i1  Li1+  0.196  0.300  0.300  0.001
  Li_i1  Li1+  0.004  0.200  0.400  0.001
  Li_i1  Li1+  0.196  0.300  0.500  0.001
  Li_i1  Li1+  0.004  0.200  0.600  0.001
  Li_i1  Li1+  0.196  0.300  0.700  0.001
  Li_i1  Li1+  0.004  0.200  0.800  0.001
  Li_i1  Li1+  0.196  0.300  0.900  0.001
  Li_i1  Li1+  0.004  0.400  0.000  0.001
  Li_i1  Li1+  0.196  0.500  0.100  0.001
  Li_i1  Li1+  0.004  0.400  0.200  0.001
  Li_i1  Li1+  0.196  0.500  0.300  0.001
  Li_i1  Li1+  0.004  0.400  0.400  0.001
  Li_i1  Li1+  0.196  0.500  0.500  0.001
  Li_i1  Li1+  0.004  0.400  0.600  0.001
  Li_i1  Li1+  0.196  0.500  0.700  0.001
  Li_i1  Li1+  0.004  0.400  0.800  0.001
  Li_i1  Li1+  0.196  0.500  0.900  0.001
  Li_i1  Li1+  0.004  0.600  0.000  0.001
  Li_i1  Li1+  0.196  0.700  0.100  0.001
  Li_i1  Li1+  0.004  0.600  0.200  0.001
  Li_i1  Li1+  0.196  0.700  0.300  0.001
  Li_i1  Li1+  0.004  0.600  0.400  0.001
  Li_i1  Li1+  0.196  0.700  0.500  0.001
  Li_i1  Li1+  0.004  0.600  0.600  0.001
  Li_i1  Li1+  0.196  0.700  0.700  0.001
  Li_i1  Li1+  0.004  0.600  0.800  0.001
  Li_i1  Li1+  0.196  0.700  0.900  0.001
  Li_i1  Li1+  0.004  0.800  0.000  0.001
  Li_i1  Li1+  0.196  0.900  0.100  0.001
  Li_i1  Li1+  0.004  0.800  0.200  0.001
  Li_i1  Li1+  0.196  0.900  0.300  0.001
  Li_i1  Li1+  0.004  0.800  0.400  0.001
  Li_i1  Li1+  0.196  0.900  0.500  0.001
  Li_i1  Li1+  0.004  0.800  0.600  0.001
  Li_i1  Li1+  0.196  0.900  0.700  0.001
  Li_i1  Li1+  0.004  0.800  0.800  0.001
  Li_i1  Li1+  0.196  0.900  0.900  0.001
  Li_i1  Li1+  0.204  0.000  0.000  0.001
  Li_i1  Li1+  0.396  0.100  0.100  0.001
  Li_i1  Li1+  0.204  0.000  0.200  0.001
  Li_i1  Li1+  0.396  0.100  0.300  0.001
  Li_i1  Li1+  0.204  0.000  0.400  0.001
  Li_i1  Li1+  0.396  0.100  0.500  0.001
  Li_i1  Li1+  0.204  0.000  0.600  0.001
  Li_i1  Li1+  0.396  0.100  0.700  0.001
  Li_i1  Li1+  0.204  0.000  0.800  0.001
  Li_i1  Li1+  0.396  0.100  0.900  0.001
  Li_i1  Li1+  0.204  0.200  0.000  0.001
  Li_i1  Li1+  0.396  0.300  0.100  0.001
  Li_i1  Li1+  0.204  0.200  0.200  0.001
  Li_i1  Li1+  0.396  0.300  0.300  0.001
  Li_i1  Li1+  0.204  0.200  0.400  0.001
  Li_i1  Li1+  0.396  0.300  0.500  0.001
  Li_i1  Li1+  0.204  0.200  0.600  0.001
  Li_i1  Li1+  0.396  0.300  0.700  0.001
  Li_i1  Li1+  0.204  0.200  0.800  0.001
  Li_i1  Li1+  0.396  0.300  0.900  0.001
  Li_i1  Li1+  0.204  0.400  0.000  0.001
  Li_i1  Li1+  0.396  0.500  0.100  0.001
  Li_i1  Li1+  0.204  0.400  0.200  0.001
  Li_i1  Li1+  0.396  0.500  0.300  0.001
  Li_i1  Li1+  0.204  0.400  0.400  0.001
  Li_i1  Li1+  0.396  0.500  0.500  0.001
  Li_i1  Li1+  0.204  0.400  0.600  0.001
  Li_i1  Li1+  0.396  0.500  0.700  0.001
  Li_i1  Li1+  0.204  0.400  0.800  0.001
  Li_i1  Li1+  0.396  0.500  0.900  0.001
  Li_i1  Li1+  0.204  0.600  0.000  0.001
  Li_i1  Li1+  0.396  0.700  0.100  0.001
  Li_i1  Li1+  0.204  0.600  0.200  0.001
  Li_i1  Li1+  0.396  0.700  0.300  0.001
  Li_i1  Li1+  0.204  0.600  0.400  0.001
  Li_i1  Li1+  0.396  0.700  0.500  0.001
  Li_i1  Li1+  0.204  0.600  0.600  0.001
  Li_i1  Li1+  0.396  0.700  0.700  0.001
  Li_i1  Li1+  0.204  0.600  0.800  0.001
  Li_i1  Li1+  0.396  0.700  0.900  0.001
  Li_i1  Li1+  0.204  0.800  0.000  0.001
  Li_i1  Li1+  0.396  0.900  0.100  0.001
  Li_i1  Li1+  0.204  0.800  0.200  0.001
  Li_i1  Li1+  0.396  0.900  0.300  0.001
  Li_i1  Li1+  0.204  0.800  0.400  0.001
  Li_i1  Li1+  0.396  0.900  0.500  0.001
  Li_i1  Li1+  0.204  0.800  0.600  0.001
  Li_i1  Li1+  0.396  0.900  0.700  0.001
  Li_i1  Li1+  0.204  0.800  0.800  0.001
  Li_i1  Li1+  0.396  0.900  0.900  0.001
  Li_i1  Li1+  0.404  0.000  0.000  0.001
  Li_i1  Li1+  0.596  0.100  0.100  0.001
  Li_i1  Li1+  0.404  0.000  0.200  0.001
  Li_i1  Li1+  0.596  0.100  0.300  0.001
  Li_i1  Li1+  0.404  0.000  0.400  0.001
  Li_i1  Li1+  0.596  0.100  0.500  0.001
  Li_i1  Li1+  0.404  0.000  0.600  0.001
  Li_i1  Li1+  0.596  0.100  0.700  0.001
  Li_i1  Li1+  0.404  0.000  0.800  0.001
  Li_i1  Li1+  0.596  0.100  0.900  0.001
  Li_i1  Li1+  0.404  0.200  0.000  0.001
  Li_i1  Li1+  0.596  0.300  0.100  0.001
  Li_i1  Li1+  0.404  0.200  0.200  0.001
  Li_i1  Li1+  0.596  0.300  0.300  0.001
  Li_i1  Li1+  0.404  0.200  0.400  0.001
  Li_i1  Li1+  0.596  0.300  0.500  0.001
  Li_i1  Li1+  0.404  0.200  0.600  0.001
  Li_i1  Li1+  0.596  0.300  0.700  0.001
  Li_i1  Li1+  0.404  0.200  0.800  0.001
  Li_i1  Li1+  0.596  0.300  0.900  0.001
  Li_i1  Li1+  0.404  0.400  0.000  0.001
  Li_i1  Li1+  0.596  0.500  0.100  0.001
  Li_i1  Li1+  0.404  0.400  0.200  0.001
  Li_i1  Li1+  0.596  0.500  0.300  0.001
  Li_i1  Li1+  0.404  0.400  0.400  0.001
  Li_i1  Li1+  0.596  0.500  0.500  0.001
  Li_i1  Li1+  0.404  0.400  0.600  0.001
  Li_i1  Li1+  0.596  0.500  0.700  0.001
  Li_i1  Li1+  0.404  0.400  0.800  0.001
  Li_i1  Li1+  0.596  0.500  0.900  0.001
  Li_i1  Li1+  0.404  0.600  0.000  0.001
  Li_i1  Li1+  0.596  0.700  0.100  0.001
  Li_i1  Li1+  0.404  0.600  0.200  0.001
  Li_i1  Li1+  0.596  0.700  0.300  0.001
  Li_i1  Li1+  0.404  0.600  0.400  0.001
  Li_i1  Li1+  0.596  0.700  0.500  0.001
  Li_i1  Li1+  0.404  0.600  0.600  0.001
  Li_i1  Li1+  0.596  0.700  0.700  0.001
  Li_i1  Li1+  0.404  0.600  0.800  0.001
  Li_i1  Li1+  0.596  0.700  0.900  0.001
  Li_i1  Li1+  0.404  0.800  0.000  0.001
  Li_i1  Li1+  0.596  0.900  0.100  0.001
  Li_i1  Li1+  0.404  0.800  0.200  0.001
  Li_i1  Li1+  0.596  0.900  0.300  0.001
  Li_i1  Li1+  0.404  0.800  0.400  0.001
  Li_i1  Li1+  0.596  0.900  0.500  0.001
  Li_i1  Li1+  0.404  0.800  0.600  0.001
  Li_i1  Li1+  0.596  0.900  0.700  0.001
  Li_i1  Li1+  0.404  0.800  0.800  0.001
  Li_i1  Li1+  0.596  0.900  0.900  0.001
  Li_i1  Li1+  0.604  0.000  0.000  0.001
  Li_i1  Li1+  0.796  0.100  0.100  0.001
  Li_i1  Li1+  0.604  0.000  0.200  0.001
  Li_i1  Li1+  0.796  0.100  0.300  0.001
  Li_i1  Li1+  0.604  0.000  0.400  0.001
  Li_i1  Li1+  0.796  0.100  0.500  0.001
  Li_i1  Li1+  0.604  0.000  0.600  0.001
  Li_i1  Li1+  0.796  0.100  0.700  0.001
  Li_i1  Li1+  0.604  0.000  0.800  0.001
  Li_i1  Li1+  0.796  0.100  0.900  0.001
  Li_i1  Li1+  0.604  0.200  0.000  0.001
  Li_i1  Li1+  0.796  0.300  0.100  0.001
  Li_i1  Li1+  0.604  0.200  0.200  0.001
  Li_i1  Li1+  0.796  0.300  0.300  0.001
  Li_i1  Li1+  0.604  0.200  0.400  0.001
  Li_i1  Li1+  0.796  0.300  0.500  0.001
  Li_i1  Li1+  0.604  0.200  0.600  0.001
  Li_i1  Li1+  0.796  0.300  0.700  0.001
  Li_i1  Li1+  0.604  0.200  0.800  0.001
  Li_i1  Li1+  0.796  0.300  0.900  0.001
  Li_i1  Li1+  0.604  0.400  0.000  0.001
  Li_i1  Li1+  0.796  0.500  0.100  0.001
  Li_i1  Li1+  0.604  0.400  0.200  0.001
  Li_i1  Li1+  0.796  0.500  0.300  0.001
  Li_i1  Li1+  0.604  0.400  0.400  0.001
  Li_i1  Li1+  0.796  0.500  0.500  0.001
  Li_i1  Li1+  0.604  0.400  0.600  0.001
  Li_i1  Li1+  0.796  0.500  0.700  0.001
  Li_i1  Li1+  0.604  0.400  0.800  0.001
  Li_i1  Li1+  0.796  0.500  0.900  0.001
  Li_i1  Li1+  0.604  0.600  0.000  0.001
  Li_i1  Li1+  0.796  0.700  0.100  0.001
  Li_i1  Li1+  0.604  0.600  0.200  0.001
  Li_i1  Li1+  0.796  0.700  0.300  0.001
  Li_i1  Li1+  0.604  0.600  0.400  0.001
  Li_i1  Li1+  0.796  0.700  0.500  0.001
  Li_i1  Li1+  0.604  0.600  0.600  0.001
  Li_i1  Li1+  0.796  0.700  0.700  0.001
  Li_i1  Li1+  0.604  0.600  0.800  0.001
  Li_i1  Li1+  0.796  0.700  0.900  0.001
  Li_i1  Li1+  0.604  0.800  0.000  0.001
  Li_i1  Li1+  0.796  0.900  0.100  0.001
  Li_i1  Li1+  0.604  0.800  0.200  0.001
  Li_i1  Li1+  0.796  0.900  0.300  0.001
  Li_i1  Li1+  0.604  0.800  0.400  0.001
  Li_i1  Li1+  0.796  0.900  0.500  0.001
  Li_i1  Li1+  0.604  0.800  0.600  0.001
  Li_i1  Li1+  0.796  0.900  0.700  0.001
  Li_i1  Li1+  0.604  0.800  0.800  0.001
  Li_i1  Li1+  0.796  0.900  0.900  0.001
  Li_i1  Li1+  0.804  0.000  0.000  0.001
  Li_i1  Li1+  0.996  0.100  0.100  0.001
  Li_i1  Li1+  0.804  0.000  0.200  0.001
  Li_i1  Li1+  0.996  0.100  0.300  0.001
  Li_i1  Li1+  0.804  0.000  0.400  0.001
  Li_i1  Li1+  0.996  0.100  0.500  0.001
  Li_i1  Li1+  0.804  0.000  0.600  0.001
  Li_i1  Li1+  0.996  0.100  0.700  0.001
  Li_i1  Li1+  0.804  0.000  0.800  0.001
  Li_i1  Li1+  0.996  0.100  0.900  0.001
  Li_i1  Li1+  0.804  0.200  0.000  0.001
  Li_i1  Li1+  0.996  0.300  0.100  0.001
  Li_i1  Li1+  0.804  0.200  0.200  0.001
  Li_i1  Li1+  0.996  0.300  0.300  0.001
  Li_i1  Li1+  0.804  0.200  0.400  0.001
  Li_i1  Li1+  0.996  0.300  0.500  0.001
  Li_i1  Li1+  0.804  0.200  0.600  0.001
  Li_i1  Li1+  0.996  0.300  0.700  0.001
  Li_i1  Li1+  0.804  0.200  0.800  0.001
  Li_i1  Li1+  0.996  0.300  0.900  0.001
  Li_i1  Li1+  0.804  0.400  0.000  0.001
  Li_i1  Li1+  0.996  0.500  0.100  0.001
  Li_i1  Li1+  0.804  0.400  0.200  0.001
  Li_i1  Li1+  0.996  0.500  0.300  0.001
  Li_i1  Li1+  0.804  0.400  0.400  0.001
  Li_i1  Li1+  0.996  0.500  0.500  0.001
  Li_i1  Li1+  0.804  0.400  0.600  0.001
  Li_i1  Li1+  0.996  0.500  0.700  0.001
  Li_i1  Li1+  0.804  0.400  0.800  0.001
  Li_i1  Li1+  0.996  0.500  0.900  0.001
  Li_i1  Li1+  0.804  0.600  0.000  0.001
  Li_i1  Li1+  0.996  0.700  0.100  0.001
  Li_i1  Li1+  0.804  0.600  0.200  0.001
  Li_i1  Li1+  0.996  0.700  0.300  0.001
  Li_i1  Li1+  0.804  0.600  0.400  0.001
  Li_i1  Li1+  0.996  0.700  0.500  0.001
  Li_i1  Li1+  0.804  0.600  0.600  0.001
  Li_i1  Li1+  0.996  0.700  0.700  0.001
  Li_i1  Li1+  0.804  0.600  0.800  0.001
  Li_i1  Li1+  0.996  0.700  0.900  0.001
  Li_i1  Li1+  0.804  0.800  0.000  0.001
  Li_i1  Li1+  0.996  0.900  0.100  0.001
  Li_i1  Li1+  0.804  0.800  0.200  0.001
  Li_i1  Li1+  0.996  0.900  0.300  0.001
  Li_i1  Li1+  0.804  0.800  0.400  0.001
  Li_i1  Li1+  0.996  0.900  0.500  0.001
  Li_i1  Li1+  0.804  0.800  0.600  0.001
  Li_i1  Li1+  0.996  0.900  0.700  0.001
  Li_i1  Li1+  0.804  0.800  0.800  0.001
  Li_i1  Li1+  0.996  0.900  0.900  0.001
  Li_i2  Li1+  0.371  0.696  0.347  0.001
  Li_i2  Li1+  0.371  0.704  0.253  0.001
  Li_i2  Li1+  0.171  0.096  0.947  0.001
  Li_i2  Li1+  0.229  0.604  0.447  0.001
  Li_i2  Li1+  0.029  0.404  0.847  0.001
  Li_i2  Li1+  0.229  0.796  0.553  0.001
  Li_i2  Li1+  0.371  0.696  0.547  0.001
  Li_i2  Li1+  0.371  0.704  0.453  0.001
  Li_i2  Li1+  0.171  0.104  0.853  0.001
  Li_i2  Li1+  0.229  0.604  0.647  0.001
  Li_i2  Li1+  0.029  0.596  0.953  0.001
  Li_i2  Li1+  0.229  0.796  0.753  0.001
  Li_i2  Li1+  0.371  0.696  0.747  0.001
  Li_i2  Li1+  0.371  0.704  0.653  0.001
  Li_i2  Li1+  0.171  0.496  0.947  0.001
  Li_i2  Li1+  0.229  0.604  0.847  0.001
  Li_i2  Li1+  0.171  0.504  0.853  0.001
  Li_i2  Li1+  0.229  0.796  0.953  0.001
  Li_i2  Li1+  0.371  0.696  0.947  0.001
  Li_i2  Li1+  0.371  0.704  0.853  0.001
  Li_i2  Li1+  0.171  0.096  0.347  0.001
  Li_i2  Li1+  0.229  0.804  0.047  0.001
  Li_i2  Li1+  0.029  0.604  0.047  0.001
  Li_i2  Li1+  0.229  0.996  0.153  0.001
  Li_i2  Li1+  0.371  0.896  0.147  0.001
  Li_i2  Li1+  0.371  0.904  0.053  0.001
  Li_i2  Li1+  0.029  0.204  0.047  0.001
  Li_i2  Li1+  0.229  0.804  0.247  0.001
  Li_i2  Li1+  0.029  0.796  0.153  0.001
  Li_i2  Li1+  0.229  0.996  0.353  0.001
  Li_i2  Li1+  0.371  0.896  0.347  0.001
  Li_i2  Li1+  0.371  0.904  0.253  0.001
  Li_i2  Li1+  0.171  0.696  0.147  0.001
  Li_i2  Li1+  0.229  0.804  0.447  0.001
  Li_i2  Li1+  0.171  0.704  0.053  0.001
  Li_i2  Li1+  0.229  0.996  0.553  0.001
  Li_i2  Li1+  0.371  0.896  0.547  0.001
  Li_i2  Li1+  0.371  0.904  0.453  0.001
  Li_i2  Li1+  0.171  0.104  0.253  0.001
  Li_i2  Li1+  0.229  0.804  0.647  0.001
  Li_i2  Li1+  0.029  0.604  0.247  0.001
  Li_i2  Li1+  0.229  0.996  0.753  0.001
  Li_i2  Li1+  0.371  0.896  0.747  0.001
  Li_i2  Li1+  0.371  0.904  0.653  0.001
  Li_i2  Li1+  0.029  0.396  0.153  0.001
  Li_i2  Li1+  0.229  0.804  0.847  0.001
  Li_i2  Li1+  0.029  0.796  0.353  0.001
  Li_i2  Li1+  0.229  0.996  0.953  0.001
  Li_i2  Li1+  0.371  0.896  0.947  0.001
  Li_i2  Li1+  0.371  0.904  0.853  0.001
  Li_i2  Li1+  0.171  0.696  0.347  0.001
  Li_i2  Li1+  0.429  0.004  0.047  0.001
  Li_i2  Li1+  0.171  0.704  0.253  0.001
  Li_i2  Li1+  0.429  0.196  0.153  0.001
  Li_i2  Li1+  0.571  0.096  0.147  0.001
  Li_i2  Li1+  0.571  0.104  0.053  0.001
  Li_i2  Li1+  0.171  0.296  0.147  0.001
  Li_i2  Li1+  0.429  0.004  0.247  0.001
  Li_i2  Li1+  0.029  0.604  0.447  0.001
  Li_i2  Li1+  0.429  0.196  0.353  0.001
  Li_i2  Li1+  0.571  0.096  0.347  0.001
  Li_i2  Li1+  0.571  0.104  0.253  0.001
  Li_i2  Li1+  0.171  0.304  0.053  0.001
  Li_i2  Li1+  0.429  0.004  0.447  0.001
  Li_i2  Li1+  0.029  0.796  0.553  0.001
  Li_i2  Li1+  0.429  0.196  0.553  0.001
  Li_i2  Li1+  0.571  0.096  0.547  0.001
  Li_i2  Li1+  0.571  0.104  0.453  0.001
  Li_i2  Li1+  0.171  0.696  0.547  0.001
  Li_i2  Li1+  0.429  0.004  0.647  0.001
  Li_i2  Li1+  0.171  0.704  0.453  0.001
  Li_i2  Li1+  0.429  0.196  0.753  0.001
  Li_i2  Li1+  0.571  0.096  0.747  0.001
  Li_i2  Li1+  0.571  0.104  0.653  0.001
  Li_i2  Li1+  0.171  0.096  0.147  0.001
  Li_i2  Li1+  0.429  0.004  0.847  0.001
  Li_i2  Li1+  0.029  0.604  0.647  0.001
  Li_i2  Li1+  0.429  0.196  0.953  0.001
  Li_i2  Li1+  0.571  0.096  0.947  0.001
  Li_i2  Li1+  0.571  0.104  0.853  0.001
  Li_i2  Li1+  0.029  0.204  0.247  0.001
  Li_i2  Li1+  0.429  0.204  0.047  0.001
  Li_i2  Li1+  0.029  0.796  0.753  0.001
  Li_i2  Li1+  0.429  0.396  0.153  0.001
  Li_i2  Li1+  0.571  0.296  0.147  0.001
  Li_i2  Li1+  0.571  0.304  0.053  0.001
  Li_i2  Li1+  0.171  0.696  0.747  0.001
  Li_i2  Li1+  0.429  0.204  0.247  0.001
  Li_i2  Li1+  0.171  0.704  0.653  0.001
  Li_i2  Li1+  0.429  0.396  0.353  0.001
  Li_i2  Li1+  0.571  0.296  0.347  0.001
  Li_i2  Li1+  0.571  0.304  0.253  0.001
  Li_i2  Li1+  0.029  0.004  0.447  0.001
  Li_i2  Li1+  0.429  0.204  0.447  0.001
  Li_i2  Li1+  0.029  0.604  0.847  0.001
  Li_i2  Li1+  0.429  0.396  0.553  0.001
  Li_i2  Li1+  0.571  0.296  0.547  0.001
  Li_i2  Li1+  0.571  0.304  0.453  0.001
  Li_i2  Li1+  0.029  0.396  0.353  0.001
  Li_i2  Li1+  0.429  0.204  0.647  0.001
  Li_i2  Li1+  0.029  0.796  0.953  0.001
  Li_i2  Li1+  0.429  0.396  0.753  0.001
  Li_i2  Li1+  0.571  0.296  0.747  0.001
  Li_i2  Li1+  0.571  0.304  0.653  0.001
  Li_i2  Li1+  0.171  0.696  0.947  0.001
  Li_i2  Li1+  0.429  0.204  0.847  0.001
  Li_i2  Li1+  0.171  0.704  0.853  0.001
  Li_i2  Li1+  0.429  0.396  0.953  0.001
  Li_i2  Li1+  0.571  0.296  0.947  0.001
  Li_i2  Li1+  0.571  0.304  0.853  0.001
  Li_i2  Li1+  0.171  0.296  0.347  0.001
  Li_i2  Li1+  0.429  0.404  0.047  0.001
  Li_i2  Li1+  0.029  0.804  0.047  0.001
  Li_i2  Li1+  0.429  0.596  0.153  0.001
  Li_i2  Li1+  0.571  0.496  0.147  0.001
  Li_i2  Li1+  0.571  0.504  0.053  0.001
  Li_i2  Li1+  0.171  0.304  0.253  0.001
  Li_i2  Li1+  0.429  0.404  0.247  0.001
  Li_i2  Li1+  0.029  0.996  0.153  0.001
  Li_i2  Li1+  0.429  0.596  0.353  0.001
  Li_i2  Li1+  0.571  0.496  0.347  0.001
  Li_i2  Li1+  0.571  0.504  0.253  0.001
  Li_i2  Li1+  0.171  0.896  0.147  0.001
  Li_i2  Li1+  0.429  0.404  0.447  0.001
  Li_i2  Li1+  0.171  0.904  0.053  0.001
  Li_i2  Li1+  0.429  0.596  0.553  0.001
  Li_i2  Li1+  0.571  0.496  0.547  0.001
  Li_i2  Li1+  0.571  0.504  0.453  0.001
  Li_i2  Li1+  0.171  0.104  0.053  0.001
  Li_i2  Li1+  0.429  0.404  0.647  0.001
  Li_i2  Li1+  0.029  0.804  0.247  0.001
  Li_i2  Li1+  0.429  0.596  0.753  0.001
  Li_i2  Li1+  0.571  0.496  0.747  0.001
  Li_i2  Li1+  0.571  0.504  0.653  0.001
  Li_i2  Li1+  0.029  0.204  0.447  0.001
  Li_i2  Li1+  0.429  0.404  0.847  0.001
  Li_i2  Li1+  0.029  0.996  0.353  0.001
  Li_i2  Li1+  0.429  0.596  0.953  0.001
  Li_i2  Li1+  0.571  0.496  0.947  0.001
  Li_i2  Li1+  0.571  0.504  0.853  0.001
  Li_i2  Li1+  0.171  0.896  0.347  0.001
  Li_i2  Li1+  0.429  0.604  0.047  0.001
  Li_i2  Li1+  0.171  0.904  0.253  0.001
  Li_i2  Li1+  0.429  0.796  0.153  0.001
  Li_i2  Li1+  0.571  0.696  0.147  0.001
  Li_i2  Li1+  0.571  0.704  0.053  0.001
  Li_i2  Li1+  0.029  0.196  0.553  0.001
  Li_i2  Li1+  0.429  0.604  0.247  0.001
  Li_i2  Li1+  0.029  0.804  0.447  0.001
  Li_i2  Li1+  0.429  0.796  0.353  0.001
  Li_i2  Li1+  0.571  0.696  0.347  0.001
  Li_i2  Li1+  0.571  0.704  0.253  0.001
  Li_i2  Li1+  0.029  0.396  0.553  0.001
  Li_i2  Li1+  0.429  0.604  0.447  0.001
  Li_i2  Li1+  0.029  0.996  0.553  0.001
  Li_i2  Li1+  0.429  0.796  0.553  0.001
  Li_i2  Li1+  0.571  0.696  0.547  0.001
  Li_i2  Li1+  0.571  0.704  0.453  0.001
  Li_i2  Li1+  0.171  0.896  0.547  0.001
  Li_i2  Li1+  0.429  0.604  0.647  0.001
  Li_i2  Li1+  0.171  0.904  0.453  0.001
  Li_i2  Li1+  0.429  0.796  0.753  0.001
  Li_i2  Li1+  0.571  0.696  0.747  0.001
  Li_i2  Li1+  0.571  0.704  0.653  0.001
  Li_i2  Li1+  0.171  0.296  0.547  0.001
  Li_i2  Li1+  0.429  0.604  0.847  0.001
  Li_i2  Li1+  0.029  0.804  0.647  0.001
  Li_i2  Li1+  0.429  0.796  0.953  0.001
  Li_i2  Li1+  0.571  0.696  0.947  0.001
  Li_i2  Li1+  0.571  0.704  0.853  0.001
  Li_i2  Li1+  0.171  0.304  0.453  0.001
  Li_i2  Li1+  0.429  0.804  0.047  0.001
  Li_i2  Li1+  0.029  0.996  0.753  0.001
  Li_i2  Li1+  0.429  0.996  0.153  0.001
  Li_i2  Li1+  0.571  0.896  0.147  0.001
  Li_i2  Li1+  0.571  0.904  0.053  0.001
  Li_i2  Li1+  0.171  0.896  0.747  0.001
  Li_i2  Li1+  0.429  0.804  0.247  0.001
  Li_i2  Li1+  0.171  0.904  0.653  0.001
  Li_i2  Li1+  0.429  0.996  0.353  0.001
  Li_i2  Li1+  0.571  0.896  0.347  0.001
  Li_i2  Li1+  0.571  0.904  0.253  0.001
  Li_i2  Li1+  0.171  0.096  0.547  0.001
  Li_i2  Li1+  0.429  0.804  0.447  0.001
  Li_i2  Li1+  0.029  0.804  0.847  0.001
  Li_i2  Li1+  0.429  0.996  0.553  0.001
  Li_i2  Li1+  0.571  0.896  0.547  0.001
  Li_i2  Li1+  0.571  0.904  0.453  0.001
  Li_i2  Li1+  0.029  0.204  0.647  0.001
  Li_i2  Li1+  0.429  0.804  0.647  0.001
  Li_i2  Li1+  0.029  0.996  0.953  0.001
  Li_i2  Li1+  0.429  0.996  0.753  0.001
  Li_i2  Li1+  0.571  0.896  0.747  0.001
  Li_i2  Li1+  0.571  0.904  0.653  0.001
  Li_i2  Li1+  0.171  0.896  0.947  0.001
  Li_i2  Li1+  0.429  0.804  0.847  0.001
  Li_i2  Li1+  0.171  0.904  0.853  0.001
  Li_i2  Li1+  0.429  0.996  0.953  0.001
  Li_i2  Li1+  0.571  0.896  0.947  0.001
  Li_i2  Li1+  0.571  0.904  0.853  0.001
  Li_i2  Li1+  0.171  0.104  0.453  0.001
  Li_i2  Li1+  0.629  0.004  0.047  0.001
  Li_i2  Li1+  0.229  0.004  0.047  0.001
  Li_i2  Li1+  0.629  0.196  0.153  0.001
  Li_i2  Li1+  0.771  0.096  0.147  0.001
  Li_i2  Li1+  0.771  0.104  0.053  0.001
  Li_i2  Li1+  0.029  0.396  0.753  0.001
  Li_i2  Li1+  0.629  0.004  0.247  0.001
  Li_i2  Li1+  0.229  0.196  0.153  0.001
  Li_i2  Li1+  0.629  0.196  0.353  0.001
  Li_i2  Li1+  0.771  0.096  0.347  0.001
  Li_i2  Li1+  0.771  0.104  0.253  0.001
  Li_i2  Li1+  0.371  0.096  0.147  0.001
  Li_i2  Li1+  0.629  0.004  0.447  0.001
  Li_i2  Li1+  0.371  0.104  0.053  0.001
  Li_i2  Li1+  0.629  0.196  0.553  0.001
  Li_i2  Li1+  0.771  0.096  0.547  0.001
  Li_i2  Li1+  0.771  0.104  0.453  0.001
  Li_i2  Li1+  0.171  0.296  0.747  0.001
  Li_i2  Li1+  0.629  0.004  0.647  0.001
  Li_i2  Li1+  0.229  0.004  0.247  0.001
  Li_i2  Li1+  0.629  0.196  0.753  0.001
  Li_i2  Li1+  0.771  0.096  0.747  0.001
  Li_i2  Li1+  0.771  0.104  0.653  0.001
  Li_i2  Li1+  0.171  0.304  0.653  0.001
  Li_i2  Li1+  0.629  0.004  0.847  0.001
  Li_i2  Li1+  0.229  0.196  0.353  0.001
  Li_i2  Li1+  0.629  0.196  0.953  0.001
  Li_i2  Li1+  0.771  0.096  0.947  0.001
  Li_i2  Li1+  0.771  0.104  0.853  0.001
  Li_i2  Li1+  0.371  0.096  0.347  0.001
  Li_i2  Li1+  0.629  0.204  0.047  0.001
  Li_i2  Li1+  0.371  0.104  0.253  0.001
  Li_i2  Li1+  0.629  0.396  0.153  0.001
  Li_i2  Li1+  0.771  0.296  0.147  0.001
  Li_i2  Li1+  0.771  0.304  0.053  0.001
  Li_i2  Li1+  0.029  0.004  0.047  0.001
  Li_i2  Li1+  0.629  0.204  0.247  0.001
  Li_i2  Li1+  0.229  0.004  0.447  0.001
  Li_i2  Li1+  0.629  0.396  0.353  0.001
  Li_i2  Li1+  0.771  0.296  0.347  0.001
  Li_i2  Li1+  0.771  0.304  0.253  0.001
  Li_i2  Li1+  0.029  0.204  0.847  0.001
  Li_i2  Li1+  0.629  0.204  0.447  0.001
  Li_i2  Li1+  0.229  0.196  0.553  0.001
  Li_i2  Li1+  0.629  0.396  0.553  0.001
  Li_i2  Li1+  0.771  0.296  0.547  0.001
  Li_i2  Li1+  0.771  0.304  0.453  0.001
  Li_i2  Li1+  0.371  0.096  0.547  0.001
  Li_i2  Li1+  0.629  0.204  0.647  0.001
  Li_i2  Li1+  0.371  0.104  0.453  0.001
  Li_i2  Li1+  0.629  0.396  0.753  0.001
  Li_i2  Li1+  0.771  0.296  0.747  0.001
  Li_i2  Li1+  0.771  0.304  0.653  0.001
  Li_i2  Li1+  0.029  0.004  0.647  0.001
  Li_i2  Li1+  0.629  0.204  0.847  0.001
  Li_i2  Li1+  0.229  0.004  0.647  0.001
  Li_i2  Li1+  0.629  0.396  0.953  0.001
  Li_i2  Li1+  0.771  0.296  0.947  0.001
  Li_i2  Li1+  0.771  0.304  0.853  0.001
  Li_i2  Li1+  0.029  0.396  0.953  0.001
  Li_i2  Li1+  0.629  0.404  0.047  0.001
  Li_i2  Li1+  0.229  0.196  0.753  0.001
  Li_i2  Li1+  0.629  0.596  0.153  0.001
  Li_i2  Li1+  0.771  0.496  0.147  0.001
  Li_i2  Li1+  0.771  0.504  0.053  0.001
  Li_i2  Li1+  0.371  0.096  0.747  0.001
  Li_i2  Li1+  0.629  0.404  0.247  0.001
  Li_i2  Li1+  0.371  0.104  0.653  0.001
  Li_i2  Li1+  0.629  0.596  0.353  0.001
  Li_i2  Li1+  0.771  0.496  0.347  0.001
  Li_i2  Li1+  0.771  0.504  0.253  0.001
  Li_i2  Li1+  0.171  0.296  0.947  0.001
  Li_i2  Li1+  0.629  0.404  0.447  0.001
  Li_i2  Li1+  0.229  0.004  0.847  0.001
  Li_i2  Li1+  0.629  0.596  0.553  0.001
  Li_i2  Li1+  0.771  0.496  0.547  0.001
  Li_i2  Li1+  0.771  0.504  0.453  0.001
  Li_i2  Li1+  0.171  0.304  0.853  0.001
  Li_i2  Li1+  0.629  0.404  0.647  0.001
  Li_i2  Li1+  0.229  0.196  0.953  0.001
  Li_i2  Li1+  0.629  0.596  0.753  0.001
  Li_i2  Li1+  0.771  0.496  0.747  0.001
  Li_i2  Li1+  0.771  0.504  0.653  0.001
  Li_i2  Li1+  0.371  0.096  0.947  0.001
  Li_i2  Li1+  0.629  0.404  0.847  0.001
  Li_i2  Li1+  0.371  0.104  0.853  0.001
  Li_i2  Li1+  0.629  0.596  0.953  0.001
  Li_i2  Li1+  0.771  0.496  0.947  0.001
  Li_i2  Li1+  0.771  0.504  0.853  0.001
  Li_i2  Li1+  0.029  0.004  0.247  0.001
  Li_i2  Li1+  0.629  0.604  0.047  0.001
  Li_i2  Li1+  0.229  0.204  0.047  0.001
  Li_i2  Li1+  0.629  0.796  0.153  0.001
  Li_i2  Li1+  0.771  0.696  0.147  0.001
  Li_i2  Li1+  0.771  0.704  0.053  0.001
  Li_i2  Li1+  0.029  0.404  0.047  0.001
  Li_i2  Li1+  0.629  0.604  0.247  0.001
  Li_i2  Li1+  0.229  0.396  0.153  0.001
  Li_i2  Li1+  0.629  0.796  0.353  0.001
  Li_i2  Li1+  0.771  0.696  0.347  0.001
  Li_i2  Li1+  0.771  0.704  0.253  0.001
  Li_i2  Li1+  0.371  0.296  0.147  0.001
  Li_i2  Li1+  0.629  0.604  0.447  0.001
  Li_i2  Li1+  0.371  0.304  0.053  0.001
  Li_i2  Li1+  0.629  0.796  0.553  0.001
  Li_i2  Li1+  0.771  0.696  0.547  0.001
  Li_i2  Li1+  0.771  0.704  0.453  0.001
  Li_i2  Li1+  0.029  0.196  0.753  0.001
  Li_i2  Li1+  0.629  0.604  0.647  0.001
  Li_i2  Li1+  0.229  0.204  0.247  0.001
  Li_i2  Li1+  0.629  0.796  0.753  0.001
  Li_i2  Li1+  0.771  0.696  0.747  0.001
  Li_i2  Li1+  0.771  0.704  0.653  0.001
  Li_i2  Li1+  0.029  0.596  0.153  0.001
  Li_i2  Li1+  0.629  0.604  0.847  0.001
  Li_i2  Li1+  0.229  0.396  0.353  0.001
  Li_i2  Li1+  0.629  0.796  0.953  0.001
  Li_i2  Li1+  0.771  0.696  0.947  0.001
  Li_i2  Li1+  0.771  0.704  0.853  0.001
  Li_i2  Li1+  0.371  0.296  0.347  0.001
  Li_i2  Li1+  0.629  0.804  0.047  0.001
  Li_i2  Li1+  0.371  0.304  0.253  0.001
  Li_i2  Li1+  0.629  0.996  0.153  0.001
  Li_i2  Li1+  0.771  0.896  0.147  0.001
  Li_i2  Li1+  0.771  0.904  0.053  0.001
  Li_i2  Li1+  0.171  0.496  0.147  0.001
  Li_i2  Li1+  0.629  0.804  0.247  0.001
  Li_i2  Li1+  0.229  0.204  0.447  0.001
  Li_i2  Li1+  0.629  0.996  0.353  0.001
  Li_i2  Li1+  0.771  0.896  0.347  0.001
  Li_i2  Li1+  0.771  0.904  0.253  0.001
  Li_i2  Li1+  0.171  0.504  0.053  0.001
  Li_i2  Li1+  0.629  0.804  0.447  0.001
  Li_i2  Li1+  0.229  0.396  0.553  0.001
  Li_i2  Li1+  0.629  0.996  0.553  0.001
  Li_i2  Li1+  0.771  0.896  0.547  0.001
  Li_i2  Li1+  0.771  0.904  0.453  0.001
  Li_i2  Li1+  0.371  0.296  0.547  0.001
  Li_i2  Li1+  0.629  0.804  0.647  0.001
  Li_i2  Li1+  0.371  0.304  0.453  0.001
  Li_i2  Li1+  0.629  0.996  0.753  0.001
  Li_i2  Li1+  0.771  0.896  0.747  0.001
  Li_i2  Li1+  0.771  0.904  0.653  0.001
  Li_i2  Li1+  0.171  0.096  0.747  0.001
  Li_i2  Li1+  0.629  0.804  0.847  0.001
  Li_i2  Li1+  0.229  0.204  0.647  0.001
  Li_i2  Li1+  0.629  0.996  0.953  0.001
  Li_i2  Li1+  0.771  0.896  0.947  0.001
  Li_i2  Li1+  0.771  0.904  0.853  0.001
  Li_i2  Li1+  0.029  0.404  0.247  0.001
  Li_i2  Li1+  0.829  0.004  0.047  0.001
  Li_i2  Li1+  0.229  0.396  0.753  0.001
  Li_i2  Li1+  0.829  0.196  0.153  0.001
  Li_i2  Li1+  0.971  0.096  0.147  0.001
  Li_i2  Li1+  0.971  0.104  0.053  0.001
  Li_i2  Li1+  0.371  0.296  0.747  0.001
  Li_i2  Li1+  0.829  0.004  0.247  0.001
  Li_i2  Li1+  0.371  0.304  0.653  0.001
  Li_i2  Li1+  0.829  0.196  0.353  0.001
  Li_i2  Li1+  0.971  0.096  0.347  0.001
  Li_i2  Li1+  0.971  0.104  0.253  0.001
  Li_i2  Li1+  0.171  0.104  0.653  0.001
  Li_i2  Li1+  0.829  0.004  0.447  0.001
  Li_i2  Li1+  0.229  0.204  0.847  0.001
  Li_i2  Li1+  0.829  0.196  0.553  0.001
  Li_i2  Li1+  0.971  0.096  0.547  0.001
  Li_i2  Li1+  0.971  0.104  0.453  0.001
  Li_i2  Li1+  0.029  0.596  0.353  0.001
  Li_i2  Li1+  0.829  0.004  0.647  0.001
  Li_i2  Li1+  0.229  0.396  0.953  0.001
  Li_i2  Li1+  0.829  0.196  0.753  0.001
  Li_i2  Li1+  0.971  0.096  0.747  0.001
  Li_i2  Li1+  0.971  0.104  0.653  0.001
  Li_i2  Li1+  0.371  0.296  0.947  0.001
  Li_i2  Li1+  0.829  0.004  0.847  0.001
  Li_i2  Li1+  0.371  0.304  0.853  0.001
  Li_i2  Li1+  0.829  0.196  0.953  0.001
  Li_i2  Li1+  0.971  0.096  0.947  0.001
  Li_i2  Li1+  0.971  0.104  0.853  0.001
  Li_i2  Li1+  0.171  0.496  0.347  0.001
  Li_i2  Li1+  0.829  0.204  0.047  0.001
  Li_i2  Li1+  0.229  0.404  0.047  0.001
  Li_i2  Li1+  0.829  0.396  0.153  0.001
  Li_i2  Li1+  0.971  0.296  0.147  0.001
  Li_i2  Li1+  0.971  0.304  0.053  0.001
  Li_i2  Li1+  0.171  0.504  0.253  0.001
  Li_i2  Li1+  0.829  0.204  0.247  0.001
  Li_i2  Li1+  0.229  0.596  0.153  0.001
  Li_i2  Li1+  0.829  0.396  0.353  0.001
  Li_i2  Li1+  0.971  0.296  0.347  0.001
  Li_i2  Li1+  0.971  0.304  0.253  0.001
  Li_i2  Li1+  0.371  0.496  0.147  0.001
  Li_i2  Li1+  0.829  0.204  0.447  0.001
  Li_i2  Li1+  0.371  0.504  0.053  0.001
  Li_i2  Li1+  0.829  0.396  0.553  0.001
  Li_i2  Li1+  0.971  0.296  0.547  0.001
  Li_i2  Li1+  0.971  0.304  0.453  0.001
  Li_i2  Li1+  0.029  0.196  0.153  0.001
  Li_i2  Li1+  0.829  0.204  0.647  0.001
  Li_i2  Li1+  0.229  0.404  0.247  0.001
  Li_i2  Li1+  0.829  0.396  0.753  0.001
  Li_i2  Li1+  0.971  0.296  0.747  0.001
  Li_i2  Li1+  0.971  0.304  0.653  0.001
  Li_i2  Li1+  0.029  0.404  0.447  0.001
  Li_i2  Li1+  0.829  0.204  0.847  0.001
  Li_i2  Li1+  0.229  0.596  0.353  0.001
  Li_i2  Li1+  0.829  0.396  0.953  0.001
  Li_i2  Li1+  0.971  0.296  0.947  0.001
  Li_i2  Li1+  0.971  0.304  0.853  0.001
  Li_i2  Li1+  0.371  0.496  0.347  0.001
  Li_i2  Li1+  0.829  0.404  0.047  0.001
  Li_i2  Li1+  0.371  0.504  0.253  0.001
  Li_i2  Li1+  0.829  0.596  0.153  0.001
  Li_i2  Li1+  0.971  0.496  0.147  0.001
  Li_i2  Li1+  0.971  0.504  0.053  0.001
  Li_i2  Li1+  0.029  0.004  0.847  0.001
  Li_i2  Li1+  0.829  0.404  0.247  0.001
  Li_i2  Li1+  0.229  0.404  0.447  0.001
  Li_i2  Li1+  0.829  0.596  0.353  0.001
  Li_i2  Li1+  0.971  0.496  0.347  0.001
  Li_i2  Li1+  0.971  0.504  0.253  0.001
  Li_i2  Li1+  0.029  0.596  0.553  0.001
  Li_i2  Li1+  0.829  0.404  0.447  0.001
  Li_i2  Li1+  0.229  0.596  0.553  0.001
  Li_i2  Li1+  0.829  0.596  0.553  0.001
  Li_i2  Li1+  0.971  0.496  0.547  0.001
  Li_i2  Li1+  0.971  0.504  0.453  0.001
  Li_i2  Li1+  0.371  0.496  0.547  0.001
  Li_i2  Li1+  0.829  0.404  0.647  0.001
  Li_i2  Li1+  0.371  0.504  0.453  0.001
  Li_i2  Li1+  0.829  0.596  0.753  0.001
  Li_i2  Li1+  0.971  0.496  0.747  0.001
  Li_i2  Li1+  0.971  0.504  0.653  0.001
  Li_i2  Li1+  0.171  0.496  0.547  0.001
  Li_i2  Li1+  0.829  0.404  0.847  0.001
  Li_i2  Li1+  0.229  0.404  0.647  0.001
  Li_i2  Li1+  0.829  0.596  0.953  0.001
  Li_i2  Li1+  0.971  0.496  0.947  0.001
  Li_i2  Li1+  0.971  0.504  0.853  0.001
  Li_i2  Li1+  0.171  0.504  0.453  0.001
  Li_i2  Li1+  0.829  0.604  0.047  0.001
  Li_i2  Li1+  0.229  0.596  0.753  0.001
  Li_i2  Li1+  0.829  0.796  0.153  0.001
  Li_i2  Li1+  0.971  0.696  0.147  0.001
  Li_i2  Li1+  0.971  0.704  0.053  0.001
  Li_i2  Li1+  0.371  0.496  0.747  0.001
  Li_i2  Li1+  0.829  0.604  0.247  0.001
  Li_i2  Li1+  0.371  0.504  0.653  0.001
  Li_i2  Li1+  0.829  0.796  0.353  0.001
  Li_i2  Li1+  0.971  0.696  0.347  0.001
  Li_i2  Li1+  0.971  0.704  0.253  0.001
  Li_i2  Li1+  0.029  0.196  0.353  0.001
  Li_i2  Li1+  0.829  0.604  0.447  0.001
  Li_i2  Li1+  0.229  0.404  0.847  0.001
  Li_i2  Li1+  0.829  0.796  0.553  0.001
  Li_i2  Li1+  0.971  0.696  0.547  0.001
  Li_i2  Li1+  0.971  0.704  0.453  0.001
  Li_i2  Li1+  0.029  0.404  0.647  0.001
  Li_i2  Li1+  0.829  0.604  0.647  0.001
  Li_i2  Li1+  0.229  0.596  0.953  0.001
  Li_i2  Li1+  0.829  0.796  0.753  0.001
  Li_i2  Li1+  0.971  0.696  0.747  0.001
  Li_i2  Li1+  0.971  0.704  0.653  0.001
  Li_i2  Li1+  0.371  0.496  0.947  0.001
  Li_i2  Li1+  0.829  0.604  0.847  0.001
  Li_i2  Li1+  0.371  0.504  0.853  0.001
  Li_i2  Li1+  0.829  0.796  0.953  0.001
  Li_i2  Li1+  0.971  0.696  0.947  0.001
  Li_i2  Li1+  0.971  0.704  0.853  0.001
  Li_i2  Li1+  0.029  0.196  0.953  0.001
  Li_i2  Li1+  0.829  0.804  0.047  0.001
  Li_i2  Li1+  0.229  0.604  0.047  0.001
  Li_i2  Li1+  0.829  0.996  0.153  0.001
  Li_i2  Li1+  0.971  0.896  0.147  0.001
  Li_i2  Li1+  0.971  0.904  0.053  0.001
  Li_i2  Li1+  0.029  0.596  0.753  0.001
  Li_i2  Li1+  0.829  0.804  0.247  0.001
  Li_i2  Li1+  0.229  0.796  0.153  0.001
  Li_i2  Li1+  0.829  0.996  0.353  0.001
  Li_i2  Li1+  0.971  0.896  0.347  0.001
  Li_i2  Li1+  0.971  0.904  0.253  0.001
  Li_i2  Li1+  0.371  0.696  0.147  0.001
  Li_i2  Li1+  0.829  0.804  0.447  0.001
  Li_i2  Li1+  0.371  0.704  0.053  0.001
  Li_i2  Li1+  0.829  0.996  0.553  0.001
  Li_i2  Li1+  0.971  0.896  0.547  0.001
  Li_i2  Li1+  0.971  0.904  0.453  0.001
  Li_i2  Li1+  0.171  0.496  0.747  0.001
  Li_i2  Li1+  0.829  0.804  0.647  0.001
  Li_i2  Li1+  0.229  0.604  0.247  0.001
  Li_i2  Li1+  0.829  0.996  0.753  0.001
  Li_i2  Li1+  0.971  0.896  0.747  0.001
  Li_i2  Li1+  0.971  0.904  0.653  0.001
  Li_i2  Li1+  0.171  0.504  0.653  0.001
  Li_i2  Li1+  0.829  0.804  0.847  0.001
  Li_i2  Li1+  0.229  0.796  0.353  0.001
  Li_i2  Li1+  0.829  0.996  0.953  0.001
  Li_i2  Li1+  0.971  0.896  0.947  0.001
  Li_i2  Li1+  0.971  0.904  0.853  0.001
  Li_i3  Li1+  0.067  0.704  0.246  0.001
  Li_i3  Li1+  0.067  0.096  0.754  0.001
  Li_i3  Li1+  0.667  0.104  0.046  0.001
  Li_i3  Li1+  0.267  0.904  0.046  0.001
  Li_i3  Li1+  0.667  0.096  0.154  0.001
  Li_i3  Li1+  0.267  0.104  0.446  0.001
  Li_i3  Li1+  0.733  0.004  0.054  0.001
  Li_i3  Li1+  0.733  0.196  0.146  0.001
  Li_i3  Li1+  0.267  0.896  0.154  0.001
  Li_i3  Li1+  0.067  0.696  0.354  0.001
  Li_i3  Li1+  0.333  0.804  0.054  0.001
  Li_i3  Li1+  0.333  0.996  0.146  0.001
  Li_i3  Li1+  0.667  0.104  0.246  0.001
  Li_i3  Li1+  0.267  0.096  0.554  0.001
  Li_i3  Li1+  0.667  0.096  0.354  0.001
  Li_i3  Li1+  0.067  0.096  0.154  0.001
  Li_i3  Li1+  0.733  0.004  0.254  0.001
  Li_i3  Li1+  0.733  0.196  0.346  0.001
  Li_i3  Li1+  0.333  0.004  0.454  0.001
  Li_i3  Li1+  0.333  0.196  0.546  0.001
  Li_i3  Li1+  0.267  0.904  0.246  0.001
  Li_i3  Li1+  0.133  0.604  0.254  0.001
  Li_i3  Li1+  0.667  0.104  0.446  0.001
  Li_i3  Li1+  0.267  0.896  0.354  0.001
  Li_i3  Li1+  0.667  0.096  0.554  0.001
  Li_i3  Li1+  0.133  0.796  0.346  0.001
  Li_i3  Li1+  0.733  0.004  0.454  0.001
  Li_i3  Li1+  0.733  0.196  0.546  0.001
  Li_i3  Li1+  0.333  0.804  0.254  0.001
  Li_i3  Li1+  0.333  0.996  0.346  0.001
  Li_i3  Li1+  0.133  0.004  0.654  0.001
  Li_i3  Li1+  0.133  0.196  0.746  0.001
  Li_i3  Li1+  0.667  0.104  0.646  0.001
  Li_i3  Li1+  0.267  0.104  0.646  0.001
  Li_i3  Li1+  0.667  0.096  0.754  0.001
  Li_i3  Li1+  0.067  0.504  0.046  0.001
  Li_i3  Li1+  0.733  0.004  0.654  0.001
  Li_i3  Li1+  0.733  0.196  0.746  0.001
  Li_i3  Li1+  0.267  0.904  0.446  0.001
  Li_i3  Li1+  0.267  0.096  0.754  0.001
  Li_i3  Li1+  0.267  0.896  0.554  0.001
  Li_i3  Li1+  0.067  0.304  0.246  0.001
  Li_i3  Li1+  0.667  0.104  0.846  0.001
  Li_i3  Li1+  0.333  0.804  0.454  0.001
  Li_i3  Li1+  0.667  0.096  0.954  0.001
  Li_i3  Li1+  0.333  0.996  0.546  0.001
  Li_i3  Li1+  0.733  0.004  0.854  0.001
  Li_i3  Li1+  0.733  0.196  0.946  0.001
  Li_i3  Li1+  0.333  0.004  0.654  0.001
  Li_i3  Li1+  0.333  0.196  0.746  0.001
  Li_i3  Li1+  0.067  0.704  0.446  0.001
  Li_i3  Li1+  0.067  0.496  0.154  0.001
  Li_i3  Li1+  0.667  0.304  0.046  0.001
  Li_i3  Li1+  0.267  0.904  0.646  0.001
  Li_i3  Li1+  0.667  0.296  0.154  0.001
  Li_i3  Li1+  0.067  0.696  0.554  0.001
  Li_i3  Li1+  0.733  0.204  0.054  0.001
  Li_i3  Li1+  0.733  0.396  0.146  0.001
  Li_i3  Li1+  0.267  0.896  0.754  0.001
  Li_i3  Li1+  0.067  0.104  0.446  0.001
  Li_i3  Li1+  0.333  0.804  0.654  0.001
  Li_i3  Li1+  0.333  0.996  0.746  0.001
  Li_i3  Li1+  0.667  0.304  0.246  0.001
  Li_i3  Li1+  0.267  0.104  0.846  0.001
  Li_i3  Li1+  0.667  0.296  0.354  0.001
  Li_i3  Li1+  0.133  0.604  0.454  0.001
  Li_i3  Li1+  0.733  0.204  0.254  0.001
  Li_i3  Li1+  0.733  0.396  0.346  0.001
  Li_i3  Li1+  0.267  0.096  0.954  0.001
  Li_i3  Li1+  0.133  0.796  0.546  0.001
  Li_i3  Li1+  0.267  0.904  0.846  0.001
  Li_i3  Li1+  0.333  0.004  0.854  0.001
  Li_i3  Li1+  0.667  0.304  0.446  0.001
  Li_i3  Li1+  0.267  0.896  0.954  0.001
  Li_i3  Li1+  0.667  0.296  0.554  0.001
  Li_i3  Li1+  0.333  0.196  0.946  0.001
  Li_i3  Li1+  0.733  0.204  0.454  0.001
  Li_i3  Li1+  0.733  0.396  0.546  0.001
  Li_i3  Li1+  0.333  0.804  0.854  0.001
  Li_i3  Li1+  0.333  0.996  0.946  0.001
  Li_i3  Li1+  0.133  0.404  0.054  0.001
  Li_i3  Li1+  0.133  0.596  0.146  0.001
  Li_i3  Li1+  0.667  0.304  0.646  0.001
  Li_i3  Li1+  0.067  0.296  0.354  0.001
  Li_i3  Li1+  0.667  0.296  0.754  0.001
  Li_i3  Li1+  0.067  0.096  0.354  0.001
  Li_i3  Li1+  0.733  0.204  0.654  0.001
  Li_i3  Li1+  0.733  0.396  0.746  0.001
  Li_i3  Li1+  0.467  0.104  0.046  0.001
  Li_i3  Li1+  0.267  0.304  0.046  0.001
  Li_i3  Li1+  0.467  0.096  0.154  0.001
  Li_i3  Li1+  0.067  0.704  0.646  0.001
  Li_i3  Li1+  0.667  0.304  0.846  0.001
  Li_i3  Li1+  0.533  0.004  0.054  0.001
  Li_i3  Li1+  0.667  0.296  0.954  0.001
  Li_i3  Li1+  0.533  0.196  0.146  0.001
  Li_i3  Li1+  0.733  0.204  0.854  0.001
  Li_i3  Li1+  0.733  0.396  0.946  0.001
  Li_i3  Li1+  0.267  0.296  0.154  0.001
  Li_i3  Li1+  0.133  0.204  0.254  0.001
  Li_i3  Li1+  0.333  0.204  0.054  0.001
  Li_i3  Li1+  0.333  0.396  0.146  0.001
  Li_i3  Li1+  0.667  0.504  0.046  0.001
  Li_i3  Li1+  0.467  0.104  0.246  0.001
  Li_i3  Li1+  0.667  0.496  0.154  0.001
  Li_i3  Li1+  0.067  0.696  0.754  0.001
  Li_i3  Li1+  0.733  0.404  0.054  0.001
  Li_i3  Li1+  0.733  0.596  0.146  0.001
  Li_i3  Li1+  0.467  0.096  0.354  0.001
  Li_i3  Li1+  0.133  0.396  0.346  0.001
  Li_i3  Li1+  0.533  0.004  0.254  0.001
  Li_i3  Li1+  0.533  0.196  0.346  0.001
  Li_i3  Li1+  0.667  0.504  0.246  0.001
  Li_i3  Li1+  0.133  0.604  0.654  0.001
  Li_i3  Li1+  0.667  0.496  0.354  0.001
  Li_i3  Li1+  0.133  0.796  0.746  0.001
  Li_i3  Li1+  0.733  0.404  0.254  0.001
  Li_i3  Li1+  0.733  0.596  0.346  0.001
  Li_i3  Li1+  0.267  0.304  0.246  0.001
  Li_i3  Li1+  0.067  0.504  0.246  0.001
  Li_i3  Li1+  0.467  0.104  0.446  0.001
  Li_i3  Li1+  0.267  0.296  0.354  0.001
  Li_i3  Li1+  0.667  0.504  0.446  0.001
  Li_i3  Li1+  0.467  0.096  0.554  0.001
  Li_i3  Li1+  0.667  0.496  0.554  0.001
  Li_i3  Li1+  0.067  0.096  0.554  0.001
  Li_i3  Li1+  0.733  0.404  0.454  0.001
  Li_i3  Li1+  0.733  0.596  0.546  0.001
  Li_i3  Li1+  0.533  0.004  0.454  0.001
  Li_i3  Li1+  0.533  0.196  0.546  0.001
  Li_i3  Li1+  0.333  0.204  0.254  0.001
  Li_i3  Li1+  0.333  0.396  0.346  0.001
  Li_i3  Li1+  0.667  0.504  0.646  0.001
  Li_i3  Li1+  0.067  0.496  0.354  0.001
  Li_i3  Li1+  0.667  0.496  0.754  0.001
  Li_i3  Li1+  0.067  0.104  0.046  0.001
  Li_i3  Li1+  0.733  0.404  0.654  0.001
  Li_i3  Li1+  0.733  0.596  0.746  0.001
  Li_i3  Li1+  0.467  0.104  0.646  0.001
  Li_i3  Li1+  0.067  0.704  0.846  0.001
  Li_i3  Li1+  0.467  0.096  0.754  0.001
  Li_i3  Li1+  0.133  0.404  0.254  0.001
  Li_i3  Li1+  0.667  0.504  0.846  0.001
  Li_i3  Li1+  0.533  0.004  0.654  0.001
  Li_i3  Li1+  0.667  0.496  0.954  0.001
  Li_i3  Li1+  0.533  0.196  0.746  0.001
  Li_i3  Li1+  0.733  0.404  0.854  0.001
  Li_i3  Li1+  0.733  0.596  0.946  0.001
  Li_i3  Li1+  0.267  0.304  0.446  0.001
  Li_i3  Li1+  0.067  0.696  0.954  0.001
  Li_i3  Li1+  0.267  0.296  0.554  0.001
  Li_i3  Li1+  0.133  0.596  0.346  0.001
  Li_i3  Li1+  0.667  0.704  0.046  0.001
  Li_i3  Li1+  0.467  0.104  0.846  0.001
  Li_i3  Li1+  0.667  0.696  0.154  0.001
  Li_i3  Li1+  0.333  0.204  0.454  0.001
  Li_i3  Li1+  0.733  0.604  0.054  0.001
  Li_i3  Li1+  0.733  0.796  0.146  0.001
  Li_i3  Li1+  0.467  0.096  0.954  0.001
  Li_i3  Li1+  0.333  0.396  0.546  0.001
  Li_i3  Li1+  0.533  0.004  0.854  0.001
  Li_i3  Li1+  0.533  0.196  0.946  0.001
  Li_i3  Li1+  0.667  0.704  0.246  0.001
  Li_i3  Li1+  0.133  0.604  0.854  0.001
  Li_i3  Li1+  0.667  0.696  0.354  0.001
  Li_i3  Li1+  0.133  0.796  0.946  0.001
  Li_i3  Li1+  0.733  0.604  0.254  0.001
  Li_i3  Li1+  0.733  0.796  0.346  0.001
  Li_i3  Li1+  0.067  0.104  0.846  0.001
  Li_i3  Li1+  0.133  0.004  0.454  0.001
  Li_i3  Li1+  0.467  0.304  0.046  0.001
  Li_i3  Li1+  0.267  0.304  0.646  0.001
  Li_i3  Li1+  0.667  0.704  0.446  0.001
  Li_i3  Li1+  0.467  0.296  0.154  0.001
  Li_i3  Li1+  0.667  0.696  0.554  0.001
  Li_i3  Li1+  0.067  0.304  0.446  0.001
  Li_i3  Li1+  0.733  0.604  0.454  0.001
  Li_i3  Li1+  0.733  0.796  0.546  0.001
  Li_i3  Li1+  0.533  0.204  0.054  0.001
  Li_i3  Li1+  0.533  0.396  0.146  0.001
  Li_i3  Li1+  0.267  0.296  0.754  0.001
  Li_i3  Li1+  0.067  0.096  0.954  0.001
  Li_i3  Li1+  0.667  0.704  0.646  0.001
  Li_i3  Li1+  0.333  0.204  0.654  0.001
  Li_i3  Li1+  0.667  0.696  0.754  0.001
  Li_i3  Li1+  0.333  0.396  0.746  0.001
  Li_i3  Li1+  0.733  0.604  0.654  0.001
  Li_i3  Li1+  0.733  0.796  0.746  0.001
  Li_i3  Li1+  0.467  0.304  0.246  0.001
  Li_i3  Li1+  0.067  0.904  0.046  0.001
  Li_i3  Li1+  0.467  0.296  0.354  0.001
  Li_i3  Li1+  0.067  0.504  0.446  0.001
  Li_i3  Li1+  0.667  0.704  0.846  0.001
  Li_i3  Li1+  0.533  0.204  0.254  0.001
  Li_i3  Li1+  0.667  0.696  0.954  0.001
  Li_i3  Li1+  0.533  0.396  0.346  0.001
  Li_i3  Li1+  0.733  0.604  0.854  0.001
  Li_i3  Li1+  0.733  0.796  0.946  0.001
  Li_i3  Li1+  0.067  0.896  0.154  0.001
  Li_i3  Li1+  0.067  0.296  0.554  0.001
  Li_i3  Li1+  0.267  0.304  0.846  0.001
  Li_i3  Li1+  0.133  0.804  0.054  0.001
  Li_i3  Li1+  0.667  0.904  0.046  0.001
  Li_i3  Li1+  0.467  0.304  0.446  0.001
  Li_i3  Li1+  0.667  0.896  0.154  0.001
  Li_i3  Li1+  0.267  0.296  0.954  0.001
  Li_i3  Li1+  0.733  0.804  0.054  0.001
  Li_i3  Li1+  0.733  0.996  0.146  0.001
  Li_i3  Li1+  0.467  0.296  0.554  0.001
  Li_i3  Li1+  0.133  0.996  0.146  0.001
  Li_i3  Li1+  0.533  0.204  0.454  0.001
  Li_i3  Li1+  0.533  0.396  0.546  0.001
  Li_i3  Li1+  0.667  0.904  0.246  0.001
  Li_i3  Li1+  0.333  0.204  0.854  0.001
  Li_i3  Li1+  0.667  0.896  0.354  0.001
  Li_i3  Li1+  0.333  0.396  0.946  0.001
  Li_i3  Li1+  0.733  0.804  0.254  0.001
  Li_i3  Li1+  0.733  0.996  0.346  0.001
  Li_i3  Li1+  0.067  0.496  0.554  0.001
  Li_i3  Li1+  0.133  0.196  0.546  0.001
  Li_i3  Li1+  0.467  0.304  0.646  0.001
  Li_i3  Li1+  0.133  0.404  0.454  0.001
  Li_i3  Li1+  0.667  0.904  0.446  0.001
  Li_i3  Li1+  0.467  0.296  0.754  0.001
  Li_i3  Li1+  0.667  0.896  0.554  0.001
  Li_i3  Li1+  0.133  0.596  0.546  0.001
  Li_i3  Li1+  0.733  0.804  0.454  0.001
  Li_i3  Li1+  0.733  0.996  0.546  0.001
  Li_i3  Li1+  0.533  0.204  0.654  0.001
  Li_i3  Li1+  0.533  0.396  0.746  0.001
  Li_i3  Li1+  0.267  0.504  0.046  0.001
  Li_i3  Li1+  0.067  0.904  0.246  0.001
  Li_i3  Li1+  0.667  0.904  0.646  0.001
  Li_i3  Li1+  0.267  0.496  0.154  0.001
  Li_i3  Li1+  0.667  0.896  0.754  0.001
  Li_i3  Li1+  0.133  0.204  0.454  0.001
  Li_i3  Li1+  0.733  0.804  0.654  0.001
  Li_i3  Li1+  0.733  0.996  0.746  0.001
  Li_i3  Li1+  0.467  0.304  0.846  0.001
  Li_i3  Li1+  0.333  0.404  0.054  0.001
  Li_i3  Li1+  0.467  0.296  0.954  0.001
  Li_i3  Li1+  0.333  0.596  0.146  0.001
  Li_i3  Li1+  0.667  0.904  0.846  0.001
  Li_i3  Li1+  0.533  0.204  0.854  0.001
  Li_i3  Li1+  0.667  0.896  0.954  0.001
  Li_i3  Li1+  0.533  0.396  0.946  0.001
  Li_i3  Li1+  0.733  0.804  0.854  0.001
  Li_i3  Li1+  0.733  0.996  0.946  0.001
  Li_i3  Li1+  0.067  0.896  0.354  0.001
  Li_i3  Li1+  0.133  0.396  0.546  0.001
  Li_i3  Li1+  0.133  0.804  0.254  0.001
  Li_i3  Li1+  0.133  0.996  0.346  0.001
  Li_i3  Li1+  0.867  0.104  0.046  0.001
  Li_i3  Li1+  0.467  0.504  0.046  0.001
  Li_i3  Li1+  0.867  0.096  0.154  0.001
  Li_i3  Li1+  0.267  0.504  0.246  0.001
  Li_i3  Li1+  0.933  0.004  0.054  0.001
  Li_i3  Li1+  0.933  0.196  0.146  0.001
  Li_i3  Li1+  0.467  0.496  0.154  0.001
  Li_i3  Li1+  0.133  0.004  0.854  0.001
  Li_i3  Li1+  0.533  0.404  0.054  0.001
  Li_i3  Li1+  0.533  0.596  0.146  0.001
  Li_i3  Li1+  0.867  0.104  0.246  0.001
  Li_i3  Li1+  0.267  0.496  0.354  0.001
  Li_i3  Li1+  0.867  0.096  0.354  0.001
  Li_i3  Li1+  0.133  0.196  0.946  0.001
  Li_i3  Li1+  0.933  0.004  0.254  0.001
  Li_i3  Li1+  0.933  0.196  0.346  0.001
  Li_i3  Li1+  0.333  0.404  0.254  0.001
  Li_i3  Li1+  0.333  0.596  0.346  0.001
  Li_i3  Li1+  0.467  0.504  0.246  0.001
  Li_i3  Li1+  0.067  0.504  0.646  0.001
  Li_i3  Li1+  0.867  0.104  0.446  0.001
  Li_i3  Li1+  0.467  0.496  0.354  0.001
  Li_i3  Li1+  0.867  0.096  0.554  0.001
  Li_i3  Li1+  0.133  0.004  0.254  0.001
  Li_i3  Li1+  0.933  0.004  0.454  0.001
  Li_i3  Li1+  0.933  0.196  0.546  0.001
  Li_i3  Li1+  0.533  0.404  0.254  0.001
  Li_i3  Li1+  0.533  0.596  0.346  0.001
  Li_i3  Li1+  0.067  0.904  0.446  0.001
  Li_i3  Li1+  0.067  0.496  0.754  0.001
  Li_i3  Li1+  0.867  0.104  0.646  0.001
  Li_i3  Li1+  0.267  0.504  0.446  0.001
  Li_i3  Li1+  0.867  0.096  0.754  0.001
  Li_i3  Li1+  0.067  0.896  0.554  0.001
  Li_i3  Li1+  0.933  0.004  0.654  0.001
  Li_i3  Li1+  0.933  0.196  0.746  0.001
  Li_i3  Li1+  0.467  0.504  0.446  0.001
  Li_i3  Li1+  0.267  0.496  0.554  0.001
  Li_i3  Li1+  0.467  0.496  0.554  0.001
  Li_i3  Li1+  0.133  0.196  0.346  0.001
  Li_i3  Li1+  0.867  0.104  0.846  0.001
  Li_i3  Li1+  0.533  0.404  0.454  0.001
  Li_i3  Li1+  0.867  0.096  0.954  0.001
  Li_i3  Li1+  0.533  0.596  0.546  0.001
  Li_i3  Li1+  0.933  0.004  0.854  0.001
  Li_i3  Li1+  0.933  0.196  0.946  0.001
  Li_i3  Li1+  0.333  0.404  0.454  0.001
  Li_i3  Li1+  0.333  0.596  0.546  0.001
  Li_i3  Li1+  0.133  0.804  0.454  0.001
  Li_i3  Li1+  0.133  0.996  0.546  0.001
  Li_i3  Li1+  0.867  0.304  0.046  0.001
  Li_i3  Li1+  0.467  0.504  0.646  0.001
  Li_i3  Li1+  0.867  0.296  0.154  0.001
  Li_i3  Li1+  0.133  0.404  0.654  0.001
  Li_i3  Li1+  0.933  0.204  0.054  0.001
  Li_i3  Li1+  0.933  0.396  0.146  0.001
  Li_i3  Li1+  0.467  0.496  0.754  0.001
  Li_i3  Li1+  0.133  0.596  0.746  0.001
  Li_i3  Li1+  0.533  0.404  0.654  0.001
  Li_i3  Li1+  0.533  0.596  0.746  0.001
  Li_i3  Li1+  0.867  0.304  0.246  0.001
  Li_i3  Li1+  0.267  0.504  0.646  0.001
  Li_i3  Li1+  0.867  0.296  0.354  0.001
  Li_i3  Li1+  0.067  0.304  0.646  0.001
  Li_i3  Li1+  0.933  0.204  0.254  0.001
  Li_i3  Li1+  0.933  0.396  0.346  0.001
  Li_i3  Li1+  0.267  0.496  0.754  0.001
  Li_i3  Li1+  0.133  0.004  0.054  0.001
  Li_i3  Li1+  0.467  0.504  0.846  0.001
  Li_i3  Li1+  0.333  0.404  0.654  0.001
  Li_i3  Li1+  0.867  0.304  0.446  0.001
  Li_i3  Li1+  0.467  0.496  0.954  0.001
  Li_i3  Li1+  0.867  0.296  0.554  0.001
  Li_i3  Li1+  0.333  0.596  0.746  0.001
  Li_i3  Li1+  0.933  0.204  0.454  0.001
  Li_i3  Li1+  0.933  0.396  0.546  0.001
  Li_i3  Li1+  0.533  0.404  0.854  0.001
  Li_i3  Li1+  0.533  0.596  0.946  0.001
  Li_i3  Li1+  0.067  0.904  0.646  0.001
  Li_i3  Li1+  0.067  0.296  0.754  0.001
  Li_i3  Li1+  0.867  0.304  0.646  0.001
  Li_i3  Li1+  0.067  0.896  0.754  0.001
  Li_i3  Li1+  0.867  0.296  0.754  0.001
  Li_i3  Li1+  0.133  0.196  0.146  0.001
  Li_i3  Li1+  0.933  0.204  0.654  0.001
  Li_i3  Li1+  0.933  0.396  0.746  0.001
  Li_i3  Li1+  0.467  0.704  0.046  0.001
  Li_i3  Li1+  0.267  0.504  0.846  0.001
  Li_i3  Li1+  0.467  0.696  0.154  0.001
  Li_i3  Li1+  0.133  0.804  0.654  0.001
  Li_i3  Li1+  0.867  0.304  0.846  0.001
  Li_i3  Li1+  0.533  0.604  0.054  0.001
  Li_i3  Li1+  0.867  0.296  0.954  0.001
  Li_i3  Li1+  0.533  0.796  0.146  0.001
  Li_i3  Li1+  0.933  0.204  0.854  0.001
  Li_i3  Li1+  0.933  0.396  0.946  0.001
  Li_i3  Li1+  0.267  0.496  0.954  0.001
  Li_i3  Li1+  0.133  0.996  0.746  0.001
  Li_i3  Li1+  0.333  0.404  0.854  0.001
  Li_i3  Li1+  0.333  0.596  0.946  0.001
  Li_i3  Li1+  0.867  0.504  0.046  0.001
  Li_i3  Li1+  0.467  0.704  0.246  0.001
  Li_i3  Li1+  0.867  0.496  0.154  0.001
  Li_i3  Li1+  0.067  0.504  0.846  0.001
  Li_i3  Li1+  0.933  0.404  0.054  0.001
  Li_i3  Li1+  0.933  0.596  0.146  0.001
  Li_i3  Li1+  0.467  0.696  0.354  0.001
  Li_i3  Li1+  0.133  0.204  0.654  0.001
  Li_i3  Li1+  0.533  0.604  0.254  0.001
  Li_i3  Li1+  0.533  0.796  0.346  0.001
  Li_i3  Li1+  0.867  0.504  0.246  0.001
  Li_i3  Li1+  0.067  0.496  0.954  0.001
  Li_i3  Li1+  0.867  0.496  0.354  0.001
  Li_i3  Li1+  0.133  0.396  0.746  0.001
  Li_i3  Li1+  0.933  0.404  0.254  0.001
  Li_i3  Li1+  0.933  0.596  0.346  0.001
  Li_i3  Li1+  0.267  0.704  0.046  0.001
  Li_i3  Li1+  0.067  0.904  0.846  0.001
  Li_i3  Li1+  0.467  0.704  0.446  0.001
  Li_i3  Li1+  0.267  0.696  0.154  0.001
  Li_i3  Li1+  0.867  0.504  0.446  0.001
  Li_i3  Li1+  0.467  0.696  0.554  0.001
  Li_i3  Li1+  0.867  0.496  0.554  0.001
  Li_i3  Li1+  0.133  0.404  0.854  0.001
  Li_i3  Li1+  0.933  0.404  0.454  0.001
  Li_i3  Li1+  0.933  0.596  0.546  0.001
  Li_i3  Li1+  0.533  0.604  0.454  0.001
  Li_i3  Li1+  0.533  0.796  0.546  0.001
  Li_i3  Li1+  0.333  0.604  0.054  0.001
  Li_i3  Li1+  0.333  0.796  0.146  0.001
  Li_i3  Li1+  0.867  0.504  0.646  0.001
  Li_i3  Li1+  0.067  0.896  0.954  0.001
  Li_i3  Li1+  0.867  0.496  0.754  0.001
  Li_i3  Li1+  0.133  0.596  0.946  0.001
  Li_i3  Li1+  0.933  0.404  0.654  0.001
  Li_i3  Li1+  0.933  0.596  0.746  0.001
  Li_i3  Li1+  0.467  0.704  0.646  0.001
  Li_i3  Li1+  0.133  0.804  0.854  0.001
  Li_i3  Li1+  0.467  0.696  0.754  0.001
  Li_i3  Li1+  0.133  0.996  0.946  0.001
  Li_i3  Li1+  0.867  0.504  0.846  0.001
  Li_i3  Li1+  0.533  0.604  0.654  0.001
  Li_i3  Li1+  0.867  0.496  0.954  0.001
  Li_i3  Li1+  0.533  0.796  0.746  0.001
  Li_i3  Li1+  0.933  0.404  0.854  0.001
  Li_i3  Li1+  0.933  0.596  0.946  0.001
  Li_i3  Li1+  0.267  0.704  0.246  0.001
  Li_i3  Li1+  0.067  0.304  0.046  0.001
  Li_i3  Li1+  0.267  0.696  0.354  0.001
  Li_i3  Li1+  0.067  0.104  0.646  0.001
  Li_i3  Li1+  0.867  0.704  0.046  0.001
  Li_i3  Li1+  0.467  0.704  0.846  0.001
  Li_i3  Li1+  0.867  0.696  0.154  0.001
  Li_i3  Li1+  0.333  0.604  0.254  0.001
  Li_i3  Li1+  0.933  0.604  0.054  0.001
  Li_i3  Li1+  0.933  0.796  0.146  0.001
  Li_i3  Li1+  0.467  0.696  0.954  0.001
  Li_i3  Li1+  0.333  0.796  0.346  0.001
  Li_i3  Li1+  0.533  0.604  0.854  0.001
  Li_i3  Li1+  0.533  0.796  0.946  0.001
  Li_i3  Li1+  0.867  0.704  0.246  0.001
  Li_i3  Li1+  0.067  0.296  0.154  0.001
  Li_i3  Li1+  0.867  0.696  0.354  0.001
  Li_i3  Li1+  0.067  0.104  0.246  0.001
  Li_i3  Li1+  0.933  0.604  0.254  0.001
  Li_i3  Li1+  0.933  0.796  0.346  0.001
  Li_i3  Li1+  0.267  0.104  0.046  0.001
  Li_i3  Li1+  0.067  0.704  0.046  0.001
  Li_i3  Li1+  0.467  0.904  0.046  0.001
  Li_i3  Li1+  0.267  0.704  0.446  0.001
  Li_i3  Li1+  0.867  0.704  0.446  0.001
  Li_i3  Li1+  0.467  0.896  0.154  0.001
  Li_i3  Li1+  0.867  0.696  0.554  0.001
  Li_i3  Li1+  0.267  0.096  0.154  0.001
  Li_i3  Li1+  0.933  0.604  0.454  0.001
  Li_i3  Li1+  0.933  0.796  0.546  0.001
  Li_i3  Li1+  0.533  0.804  0.054  0.001
  Li_i3  Li1+  0.533  0.996  0.146  0.001
  Li_i3  Li1+  0.267  0.696  0.554  0.001
  Li_i3  Li1+  0.067  0.304  0.846  0.001
  Li_i3  Li1+  0.867  0.704  0.646  0.001
  Li_i3  Li1+  0.333  0.604  0.454  0.001
  Li_i3  Li1+  0.867  0.696  0.754  0.001
  Li_i3  Li1+  0.333  0.796  0.546  0.001
  Li_i3  Li1+  0.933  0.604  0.654  0.001
  Li_i3  Li1+  0.933  0.796  0.746  0.001
  Li_i3  Li1+  0.467  0.904  0.246  0.001
  Li_i3  Li1+  0.333  0.004  0.054  0.001
  Li_i3  Li1+  0.467  0.896  0.354  0.001
  Li_i3  Li1+  0.333  0.196  0.146  0.001
  Li_i3  Li1+  0.867  0.704  0.846  0.001
  Li_i3  Li1+  0.533  0.804  0.254  0.001
  Li_i3  Li1+  0.867  0.696  0.954  0.001
  Li_i3  Li1+  0.533  0.996  0.346  0.001
  Li_i3  Li1+  0.933  0.604  0.854  0.001
  Li_i3  Li1+  0.933  0.796  0.946  0.001
  Li_i3  Li1+  0.067  0.696  0.154  0.001
  Li_i3  Li1+  0.133  0.204  0.054  0.001
  Li_i3  Li1+  0.267  0.704  0.646  0.001
  Li_i3  Li1+  0.133  0.604  0.054  0.001
  Li_i3  Li1+  0.867  0.904  0.046  0.001
  Li_i3  Li1+  0.467  0.904  0.446  0.001
  Li_i3  Li1+  0.867  0.896  0.154  0.001
  Li_i3  Li1+  0.267  0.696  0.754  0.001
  Li_i3  Li1+  0.933  0.804  0.054  0.001
  Li_i3  Li1+  0.933  0.996  0.146  0.001
  Li_i3  Li1+  0.467  0.896  0.554  0.001
  Li_i3  Li1+  0.133  0.796  0.146  0.001
  Li_i3  Li1+  0.533  0.804  0.454  0.001
  Li_i3  Li1+  0.533  0.996  0.546  0.001
  Li_i3  Li1+  0.867  0.904  0.246  0.001
  Li_i3  Li1+  0.333  0.604  0.654  0.001
  Li_i3  Li1+  0.867  0.896  0.354  0.001
  Li_i3  Li1+  0.333  0.796  0.746  0.001
  Li_i3  Li1+  0.933  0.804  0.254  0.001
  Li_i3  Li1+  0.933  0.996  0.346  0.001
  Li_i3  Li1+  0.267  0.104  0.246  0.001
  Li_i3  Li1+  0.067  0.296  0.954  0.001
  Li_i3  Li1+  0.467  0.904  0.646  0.001
  Li_i3  Li1+  0.267  0.096  0.354  0.001
  Li_i3  Li1+  0.867  0.904  0.446  0.001
  Li_i3  Li1+  0.467  0.896  0.754  0.001
  Li_i3  Li1+  0.867  0.896  0.554  0.001
  Li_i3  Li1+  0.133  0.396  0.146  0.001
  Li_i3  Li1+  0.933  0.804  0.454  0.001
  Li_i3  Li1+  0.933  0.996  0.546  0.001
  Li_i3  Li1+  0.533  0.804  0.654  0.001
  Li_i3  Li1+  0.533  0.996  0.746  0.001
  Li_i3  Li1+  0.267  0.704  0.846  0.001
  Li_i3  Li1+  0.333  0.004  0.254  0.001
  Li_i3  Li1+  0.867  0.904  0.646  0.001
  Li_i3  Li1+  0.267  0.696  0.954  0.001
  Li_i3  Li1+  0.867  0.896  0.754  0.001
  Li_i3  Li1+  0.333  0.196  0.346  0.001
  Li_i3  Li1+  0.933  0.804  0.654  0.001
  Li_i3  Li1+  0.933  0.996  0.746  0.001
  Li_i3  Li1+  0.467  0.904  0.846  0.001
  Li_i3  Li1+  0.333  0.604  0.854  0.001
  Li_i3  Li1+  0.467  0.896  0.954  0.001
  Li_i3  Li1+  0.333  0.796  0.946  0.001
  Li_i3  Li1+  0.867  0.904  0.846  0.001
  Li_i3  Li1+  0.533  0.804  0.854  0.001
  Li_i3  Li1+  0.867  0.896  0.954  0.001
  Li_i3  Li1+  0.533  0.996  0.946  0.001
  Li_i3  Li1+  0.933  0.804  0.854  0.001
  Li_i3  Li1+  0.933  0.996  0.946  0.001
  Li_i3  Li1+  0.133  0.204  0.854  0.001
  Li_i3  Li1+  0.133  0.396  0.946  0.001
  Li_i4  Li1+  0.331  0.867  0.140  0.001
  Li_i4  Li1+  0.331  0.933  0.060  0.001
  Li_i4  Li1+  0.669  0.433  0.840  0.001
  Li_i4  Li1+  0.669  0.567  0.960  0.001
  Li_i4  Li1+  0.731  0.467  0.940  0.001
  Li_i4  Li1+  0.731  0.533  0.860  0.001
  Li_i4  Li1+  0.331  0.267  0.540  0.001
  Li_i4  Li1+  0.331  0.333  0.460  0.001
  Li_i4  Li1+  0.069  0.233  0.640  0.001
  Li_i4  Li1+  0.069  0.367  0.760  0.001
  Li_i4  Li1+  0.069  0.833  0.640  0.001
  Li_i4  Li1+  0.069  0.967  0.760  0.001
  Li_i4  Li1+  0.469  0.433  0.840  0.001
  Li_i4  Li1+  0.469  0.567  0.960  0.001
  Li_i4  Li1+  0.531  0.467  0.940  0.001
  Li_i4  Li1+  0.531  0.533  0.860  0.001
  Li_i4  Li1+  0.669  0.633  0.040  0.001
  Li_i4  Li1+  0.669  0.767  0.160  0.001
  Li_i4  Li1+  0.731  0.667  0.140  0.001
  Li_i4  Li1+  0.731  0.733  0.060  0.001
  Li_i4  Li1+  0.131  0.867  0.740  0.001
  Li_i4  Li1+  0.131  0.933  0.660  0.001
  Li_i4  Li1+  0.131  0.267  0.740  0.001
  Li_i4  Li1+  0.131  0.333  0.660  0.001
  Li_i4  Li1+  0.269  0.833  0.240  0.001
  Li_i4  Li1+  0.269  0.967  0.360  0.001
  Li_i4  Li1+  0.331  0.867  0.340  0.001
  Li_i4  Li1+  0.331  0.933  0.260  0.001
  Li_i4  Li1+  0.069  0.033  0.840  0.001
  Li_i4  Li1+  0.069  0.167  0.960  0.001
  Li_i4  Li1+  0.669  0.633  0.240  0.001
  Li_i4  Li1+  0.669  0.767  0.360  0.001
  Li_i4  Li1+  0.731  0.667  0.340  0.001
  Li_i4  Li1+  0.731  0.733  0.260  0.001
  Li_i4  Li1+  0.469  0.633  0.040  0.001
  Li_i4  Li1+  0.469  0.767  0.160  0.001
  Li_i4  Li1+  0.531  0.667  0.140  0.001
  Li_i4  Li1+  0.531  0.733  0.060  0.001
  Li_i4  Li1+  0.269  0.233  0.640  0.001
  Li_i4  Li1+  0.269  0.367  0.760  0.001
  Li_i4  Li1+  0.331  0.267  0.740  0.001
  Li_i4  Li1+  0.331  0.333  0.660  0.001
  Li_i4  Li1+  0.131  0.067  0.940  0.001
  Li_i4  Li1+  0.131  0.133  0.860  0.001
  Li_i4  Li1+  0.669  0.633  0.440  0.001
  Li_i4  Li1+  0.669  0.767  0.560  0.001
  Li_i4  Li1+  0.731  0.667  0.540  0.001
  Li_i4  Li1+  0.731  0.733  0.460  0.001
  Li_i4  Li1+  0.069  0.433  0.440  0.001
  Li_i4  Li1+  0.069  0.567  0.560  0.001
  Li_i4  Li1+  0.269  0.833  0.440  0.001
  Li_i4  Li1+  0.269  0.967  0.560  0.001
  Li_i4  Li1+  0.469  0.633  0.240  0.001
  Li_i4  Li1+  0.469  0.767  0.360  0.001
  Li_i4  Li1+  0.531  0.667  0.340  0.001
  Li_i4  Li1+  0.531  0.733  0.260  0.001
  Li_i4  Li1+  0.331  0.867  0.540  0.001
  Li_i4  Li1+  0.331  0.933  0.460  0.001
  Li_i4  Li1+  0.669  0.633  0.640  0.001
  Li_i4  Li1+  0.669  0.767  0.760  0.001
  Li_i4  Li1+  0.731  0.667  0.740  0.001
  Li_i4  Li1+  0.731  0.733  0.660  0.001
  Li_i4  Li1+  0.069  0.633  0.440  0.001
  Li_i4  Li1+  0.069  0.767  0.560  0.001
  Li_i4  Li1+  0.069  0.833  0.840  0.001
  Li_i4  Li1+  0.069  0.967  0.960  0.001
  Li_i4  Li1+  0.131  0.867  0.940  0.001
  Li_i4  Li1+  0.131  0.933  0.860  0.001
  Li_i4  Li1+  0.269  0.233  0.840  0.001
  Li_i4  Li1+  0.269  0.367  0.960  0.001
  Li_i4  Li1+  0.469  0.633  0.440  0.001
  Li_i4  Li1+  0.469  0.767  0.560  0.001
  Li_i4  Li1+  0.669  0.633  0.840  0.001
  Li_i4  Li1+  0.669  0.767  0.960  0.001
  Li_i4  Li1+  0.731  0.667  0.940  0.001
  Li_i4  Li1+  0.731  0.733  0.860  0.001
  Li_i4  Li1+  0.531  0.667  0.540  0.001
  Li_i4  Li1+  0.531  0.733  0.460  0.001
  Li_i4  Li1+  0.331  0.267  0.940  0.001
  Li_i4  Li1+  0.331  0.333  0.860  0.001
  Li_i4  Li1+  0.269  0.833  0.640  0.001
  Li_i4  Li1+  0.269  0.967  0.760  0.001
  Li_i4  Li1+  0.331  0.867  0.740  0.001
  Li_i4  Li1+  0.331  0.933  0.660  0.001
  Li_i4  Li1+  0.131  0.667  0.540  0.001
  Li_i4  Li1+  0.131  0.733  0.460  0.001
  Li_i4  Li1+  0.669  0.833  0.040  0.001
  Li_i4  Li1+  0.669  0.967  0.160  0.001
  Li_i4  Li1+  0.731  0.867  0.140  0.001
  Li_i4  Li1+  0.731  0.933  0.060  0.001
  Li_i4  Li1+  0.131  0.467  0.540  0.001
  Li_i4  Li1+  0.131  0.533  0.460  0.001
  Li_i4  Li1+  0.469  0.633  0.640  0.001
  Li_i4  Li1+  0.469  0.767  0.760  0.001
  Li_i4  Li1+  0.531  0.667  0.740  0.001
  Li_i4  Li1+  0.531  0.733  0.660  0.001
  Li_i4  Li1+  0.069  0.233  0.240  0.001
  Li_i4  Li1+  0.069  0.367  0.360  0.001
  Li_i4  Li1+  0.131  0.267  0.340  0.001
  Li_i4  Li1+  0.131  0.333  0.260  0.001
  Li_i4  Li1+  0.669  0.833  0.240  0.001
  Li_i4  Li1+  0.669  0.967  0.360  0.001
  Li_i4  Li1+  0.731  0.867  0.340  0.001
  Li_i4  Li1+  0.731  0.933  0.260  0.001
  Li_i4  Li1+  0.069  0.033  0.440  0.001
  Li_i4  Li1+  0.069  0.167  0.560  0.001
  Li_i4  Li1+  0.269  0.833  0.840  0.001
  Li_i4  Li1+  0.269  0.967  0.960  0.001
  Li_i4  Li1+  0.331  0.867  0.940  0.001
  Li_i4  Li1+  0.331  0.933  0.860  0.001
  Li_i4  Li1+  0.469  0.633  0.840  0.001
  Li_i4  Li1+  0.469  0.767  0.960  0.001
  Li_i4  Li1+  0.531  0.667  0.940  0.001
  Li_i4  Li1+  0.531  0.733  0.860  0.001
  Li_i4  Li1+  0.669  0.833  0.440  0.001
  Li_i4  Li1+  0.669  0.967  0.560  0.001
  Li_i4  Li1+  0.731  0.867  0.540  0.001
  Li_i4  Li1+  0.731  0.933  0.460  0.001
  Li_i4  Li1+  0.269  0.433  0.040  0.001
  Li_i4  Li1+  0.269  0.567  0.160  0.001
  Li_i4  Li1+  0.331  0.467  0.140  0.001
  Li_i4  Li1+  0.331  0.533  0.060  0.001
  Li_i4  Li1+  0.269  0.033  0.040  0.001
  Li_i4  Li1+  0.269  0.167  0.160  0.001
  Li_i4  Li1+  0.331  0.067  0.140  0.001
  Li_i4  Li1+  0.331  0.133  0.060  0.001
  Li_i4  Li1+  0.069  0.233  0.840  0.001
  Li_i4  Li1+  0.069  0.367  0.960  0.001
  Li_i4  Li1+  0.669  0.833  0.640  0.001
  Li_i4  Li1+  0.669  0.967  0.760  0.001
  Li_i4  Li1+  0.731  0.867  0.740  0.001
  Li_i4  Li1+  0.731  0.933  0.660  0.001
  Li_i4  Li1+  0.469  0.833  0.040  0.001
  Li_i4  Li1+  0.469  0.967  0.160  0.001
  Li_i4  Li1+  0.531  0.867  0.140  0.001
  Li_i4  Li1+  0.531  0.933  0.060  0.001
  Li_i4  Li1+  0.469  0.033  0.040  0.001
  Li_i4  Li1+  0.469  0.167  0.160  0.001
  Li_i4  Li1+  0.531  0.067  0.140  0.001
  Li_i4  Li1+  0.531  0.133  0.060  0.001
  Li_i4  Li1+  0.069  0.633  0.640  0.001
  Li_i4  Li1+  0.069  0.767  0.760  0.001
  Li_i4  Li1+  0.669  0.833  0.840  0.001
  Li_i4  Li1+  0.669  0.967  0.960  0.001
  Li_i4  Li1+  0.731  0.867  0.940  0.001
  Li_i4  Li1+  0.731  0.933  0.860  0.001
  Li_i4  Li1+  0.131  0.667  0.740  0.001
  Li_i4  Li1+  0.131  0.733  0.660  0.001
  Li_i4  Li1+  0.269  0.433  0.240  0.001
  Li_i4  Li1+  0.269  0.567  0.360  0.001
  Li_i4  Li1+  0.469  0.833  0.240  0.001
  Li_i4  Li1+  0.469  0.967  0.360  0.001
  Li_i4  Li1+  0.531  0.867  0.340  0.001
  Li_i4  Li1+  0.531  0.933  0.260  0.001
  Li_i4  Li1+  0.331  0.467  0.340  0.001
  Li_i4  Li1+  0.331  0.533  0.260  0.001
  Li_i4  Li1+  0.869  0.033  0.040  0.001
  Li_i4  Li1+  0.869  0.167  0.160  0.001
  Li_i4  Li1+  0.931  0.067  0.140  0.001
  Li_i4  Li1+  0.931  0.133  0.060  0.001
  Li_i4  Li1+  0.131  0.267  0.940  0.001
  Li_i4  Li1+  0.131  0.333  0.860  0.001
  Li_i4  Li1+  0.469  0.033  0.240  0.001
  Li_i4  Li1+  0.469  0.167  0.360  0.001
  Li_i4  Li1+  0.531  0.067  0.340  0.001
  Li_i4  Li1+  0.531  0.133  0.260  0.001
  Li_i4  Li1+  0.069  0.433  0.640  0.001
  Li_i4  Li1+  0.069  0.567  0.760  0.001
  Li_i4  Li1+  0.469  0.833  0.440  0.001
  Li_i4  Li1+  0.469  0.967  0.560  0.001
  Li_i4  Li1+  0.869  0.033  0.240  0.001
  Li_i4  Li1+  0.869  0.167  0.360  0.001
  Li_i4  Li1+  0.931  0.067  0.340  0.001
  Li_i4  Li1+  0.931  0.133  0.260  0.001
  Li_i4  Li1+  0.531  0.867  0.540  0.001
  Li_i4  Li1+  0.531  0.933  0.460  0.001
  Li_i4  Li1+  0.269  0.033  0.240  0.001
  Li_i4  Li1+  0.269  0.167  0.360  0.001
  Li_i4  Li1+  0.331  0.067  0.340  0.001
  Li_i4  Li1+  0.331  0.133  0.260  0.001
  Li_i4  Li1+  0.131  0.467  0.740  0.001
  Li_i4  Li1+  0.131  0.533  0.660  0.001
  Li_i4  Li1+  0.269  0.433  0.440  0.001
  Li_i4  Li1+  0.269  0.567  0.560  0.001
  Li_i4  Li1+  0.869  0.033  0.440  0.001
  Li_i4  Li1+  0.869  0.167  0.560  0.001
  Li_i4  Li1+  0.931  0.067  0.540  0.001
  Li_i4  Li1+  0.931  0.133  0.460  0.001
  Li_i4  Li1+  0.469  0.033  0.440  0.001
  Li_i4  Li1+  0.469  0.167  0.560  0.001
  Li_i4  Li1+  0.469  0.833  0.640  0.001
  Li_i4  Li1+  0.469  0.967  0.760  0.001
  Li_i4  Li1+  0.531  0.867  0.740  0.001
  Li_i4  Li1+  0.531  0.933  0.660  0.001
  Li_i4  Li1+  0.531  0.067  0.540  0.001
  Li_i4  Li1+  0.531  0.133  0.460  0.001
  Li_i4  Li1+  0.331  0.467  0.540  0.001
  Li_i4  Li1+  0.331  0.533  0.460  0.001
  Li_i4  Li1+  0.869  0.033  0.640  0.001
  Li_i4  Li1+  0.869  0.167  0.760  0.001
  Li_i4  Li1+  0.931  0.067  0.740  0.001
  Li_i4  Li1+  0.931  0.133  0.660  0.001
  Li_i4  Li1+  0.069  0.033  0.640  0.001
  Li_i4  Li1+  0.069  0.167  0.760  0.001
  Li_i4  Li1+  0.131  0.067  0.740  0.001
  Li_i4  Li1+  0.131  0.133  0.660  0.001
  Li_i4  Li1+  0.069  0.633  0.840  0.001
  Li_i4  Li1+  0.069  0.767  0.960  0.001
  Li_i4  Li1+  0.469  0.833  0.840  0.001
  Li_i4  Li1+  0.469  0.967  0.960  0.001
  Li_i4  Li1+  0.531  0.867  0.940  0.001
  Li_i4  Li1+  0.531  0.933  0.860  0.001
  Li_i4  Li1+  0.869  0.033  0.840  0.001
  Li_i4  Li1+  0.869  0.167  0.960  0.001
  Li_i4  Li1+  0.931  0.067  0.940  0.001
  Li_i4  Li1+  0.931  0.133  0.860  0.001
  Li_i4  Li1+  0.131  0.667  0.940  0.001
  Li_i4  Li1+  0.131  0.733  0.860  0.001
  Li_i4  Li1+  0.469  0.033  0.640  0.001
  Li_i4  Li1+  0.469  0.167  0.760  0.001
  Li_i4  Li1+  0.531  0.067  0.740  0.001
  Li_i4  Li1+  0.531  0.133  0.660  0.001
  Li_i4  Li1+  0.269  0.033  0.440  0.001
  Li_i4  Li1+  0.269  0.167  0.560  0.001
  Li_i4  Li1+  0.269  0.433  0.640  0.001
  Li_i4  Li1+  0.269  0.567  0.760  0.001
  Li_i4  Li1+  0.869  0.233  0.040  0.001
  Li_i4  Li1+  0.869  0.367  0.160  0.001
  Li_i4  Li1+  0.931  0.267  0.140  0.001
  Li_i4  Li1+  0.931  0.333  0.060  0.001
  Li_i4  Li1+  0.669  0.033  0.040  0.001
  Li_i4  Li1+  0.669  0.167  0.160  0.001
  Li_i4  Li1+  0.731  0.067  0.140  0.001
  Li_i4  Li1+  0.731  0.133  0.060  0.001
  Li_i4  Li1+  0.331  0.467  0.740  0.001
  Li_i4  Li1+  0.331  0.533  0.660  0.001
  Li_i4  Li1+  0.331  0.067  0.540  0.001
  Li_i4  Li1+  0.331  0.133  0.460  0.001
  Li_i4  Li1+  0.131  0.067  0.540  0.001
  Li_i4  Li1+  0.131  0.133  0.460  0.001
  Li_i4  Li1+  0.869  0.233  0.240  0.001
  Li_i4  Li1+  0.869  0.367  0.360  0.001
  Li_i4  Li1+  0.931  0.267  0.340  0.001
  Li_i4  Li1+  0.931  0.333  0.260  0.001
  Li_i4  Li1+  0.469  0.033  0.840  0.001
  Li_i4  Li1+  0.469  0.167  0.960  0.001
  Li_i4  Li1+  0.531  0.067  0.940  0.001
  Li_i4  Li1+  0.531  0.133  0.860  0.001
  Li_i4  Li1+  0.669  0.033  0.240  0.001
  Li_i4  Li1+  0.669  0.167  0.360  0.001
  Li_i4  Li1+  0.731  0.067  0.340  0.001
  Li_i4  Li1+  0.731  0.133  0.260  0.001
  Li_i4  Li1+  0.069  0.033  0.040  0.001
  Li_i4  Li1+  0.069  0.167  0.160  0.001
  Li_i4  Li1+  0.869  0.233  0.440  0.001
  Li_i4  Li1+  0.869  0.367  0.560  0.001
  Li_i4  Li1+  0.931  0.267  0.540  0.001
  Li_i4  Li1+  0.931  0.333  0.460  0.001
  Li_i4  Li1+  0.069  0.233  0.440  0.001
  Li_i4  Li1+  0.069  0.367  0.560  0.001
  Li_i4  Li1+  0.069  0.433  0.840  0.001
  Li_i4  Li1+  0.069  0.567  0.960  0.001
  Li_i4  Li1+  0.269  0.433  0.840  0.001
  Li_i4  Li1+  0.269  0.567  0.960  0.001
  Li_i4  Li1+  0.331  0.467  0.940  0.001
  Li_i4  Li1+  0.331  0.533  0.860  0.001
  Li_i4  Li1+  0.669  0.033  0.440  0.001
  Li_i4  Li1+  0.669  0.167  0.560  0.001
  Li_i4  Li1+  0.869  0.233  0.640  0.001
  Li_i4  Li1+  0.869  0.367  0.760  0.001
  Li_i4  Li1+  0.931  0.267  0.740  0.001
  Li_i4  Li1+  0.931  0.333  0.660  0.001
  Li_i4  Li1+  0.731  0.067  0.540  0.001
  Li_i4  Li1+  0.731  0.133  0.460  0.001
  Li_i4  Li1+  0.469  0.233  0.040  0.001
  Li_i4  Li1+  0.469  0.367  0.160  0.001
  Li_i4  Li1+  0.531  0.267  0.140  0.001
  Li_i4  Li1+  0.531  0.333  0.060  0.001
  Li_i4  Li1+  0.131  0.467  0.940  0.001
  Li_i4  Li1+  0.131  0.533  0.860  0.001
  Li_i4  Li1+  0.269  0.033  0.640  0.001
  Li_i4  Li1+  0.269  0.167  0.760  0.001
  Li_i4  Li1+  0.869  0.233  0.840  0.001
  Li_i4  Li1+  0.869  0.367  0.960  0.001
  Li_i4  Li1+  0.931  0.267  0.940  0.001
  Li_i4  Li1+  0.931  0.333  0.860  0.001
  Li_i4  Li1+  0.331  0.067  0.740  0.001
  Li_i4  Li1+  0.331  0.133  0.660  0.001
  Li_i4  Li1+  0.669  0.033  0.640  0.001
  Li_i4  Li1+  0.669  0.167  0.760  0.001
  Li_i4  Li1+  0.731  0.067  0.740  0.001
  Li_i4  Li1+  0.731  0.133  0.660  0.001
  Li_i4  Li1+  0.069  0.833  0.040  0.001
  Li_i4  Li1+  0.069  0.967  0.160  0.001
  Li_i4  Li1+  0.131  0.867  0.140  0.001
  Li_i4  Li1+  0.131  0.933  0.060  0.001
  Li_i4  Li1+  0.869  0.433  0.040  0.001
  Li_i4  Li1+  0.869  0.567  0.160  0.001
  Li_i4  Li1+  0.931  0.467  0.140  0.001
  Li_i4  Li1+  0.931  0.533  0.060  0.001
  Li_i4  Li1+  0.469  0.233  0.240  0.001
  Li_i4  Li1+  0.469  0.367  0.360  0.001
  Li_i4  Li1+  0.531  0.267  0.340  0.001
  Li_i4  Li1+  0.531  0.333  0.260  0.001
  Li_i4  Li1+  0.269  0.633  0.040  0.001
  Li_i4  Li1+  0.269  0.767  0.160  0.001
  Li_i4  Li1+  0.669  0.033  0.840  0.001
  Li_i4  Li1+  0.669  0.167  0.960  0.001
  Li_i4  Li1+  0.731  0.067  0.940  0.001
  Li_i4  Li1+  0.731  0.133  0.860  0.001
  Li_i4  Li1+  0.869  0.433  0.240  0.001
  Li_i4  Li1+  0.869  0.567  0.360  0.001
  Li_i4  Li1+  0.931  0.467  0.340  0.001
  Li_i4  Li1+  0.931  0.533  0.260  0.001
  Li_i4  Li1+  0.331  0.667  0.140  0.001
  Li_i4  Li1+  0.331  0.733  0.060  0.001
  Li_i4  Li1+  0.069  0.433  0.040  0.001
  Li_i4  Li1+  0.069  0.567  0.160  0.001
  Li_i4  Li1+  0.131  0.467  0.140  0.001
  Li_i4  Li1+  0.131  0.533  0.060  0.001
  Li_i4  Li1+  0.131  0.267  0.540  0.001
  Li_i4  Li1+  0.131  0.333  0.460  0.001
  Li_i4  Li1+  0.469  0.233  0.440  0.001
  Li_i4  Li1+  0.469  0.367  0.560  0.001
  Li_i4  Li1+  0.869  0.433  0.440  0.001
  Li_i4  Li1+  0.869  0.567  0.560  0.001
  Li_i4  Li1+  0.931  0.467  0.540  0.001
  Li_i4  Li1+  0.931  0.533  0.460  0.001
  Li_i4  Li1+  0.669  0.233  0.040  0.001
  Li_i4  Li1+  0.669  0.367  0.160  0.001
  Li_i4  Li1+  0.731  0.267  0.140  0.001
  Li_i4  Li1+  0.731  0.333  0.060  0.001
  Li_i4  Li1+  0.531  0.267  0.540  0.001
  Li_i4  Li1+  0.531  0.333  0.460  0.001
  Li_i4  Li1+  0.269  0.033  0.840  0.001
  Li_i4  Li1+  0.269  0.167  0.960  0.001
  Li_i4  Li1+  0.331  0.067  0.940  0.001
  Li_i4  Li1+  0.331  0.133  0.860  0.001
  Li_i4  Li1+  0.869  0.433  0.640  0.001
  Li_i4  Li1+  0.869  0.567  0.760  0.001
  Li_i4  Li1+  0.931  0.467  0.740  0.001
  Li_i4  Li1+  0.931  0.533  0.660  0.001
  Li_i4  Li1+  0.269  0.633  0.240  0.001
  Li_i4  Li1+  0.269  0.767  0.360  0.001
  Li_i4  Li1+  0.331  0.667  0.340  0.001
  Li_i4  Li1+  0.331  0.733  0.260  0.001
  Li_i4  Li1+  0.669  0.233  0.240  0.001
  Li_i4  Li1+  0.669  0.367  0.360  0.001
  Li_i4  Li1+  0.731  0.267  0.340  0.001
  Li_i4  Li1+  0.731  0.333  0.260  0.001
  Li_i4  Li1+  0.069  0.233  0.040  0.001
  Li_i4  Li1+  0.069  0.367  0.160  0.001
  Li_i4  Li1+  0.869  0.433  0.840  0.001
  Li_i4  Li1+  0.869  0.567  0.960  0.001
  Li_i4  Li1+  0.931  0.467  0.940  0.001
  Li_i4  Li1+  0.931  0.533  0.860  0.001
  Li_i4  Li1+  0.469  0.233  0.640  0.001
  Li_i4  Li1+  0.469  0.367  0.760  0.001
  Li_i4  Li1+  0.531  0.267  0.740  0.001
  Li_i4  Li1+  0.531  0.333  0.660  0.001
  Li_i4  Li1+  0.131  0.267  0.140  0.001
  Li_i4  Li1+  0.131  0.333  0.060  0.001
  Li_i4  Li1+  0.069  0.833  0.240  0.001
  Li_i4  Li1+  0.069  0.967  0.360  0.001
  Li_i4  Li1+  0.669  0.233  0.440  0.001
  Li_i4  Li1+  0.669  0.367  0.560  0.001
  Li_i4  Li1+  0.869  0.633  0.040  0.001
  Li_i4  Li1+  0.869  0.767  0.160  0.001
  Li_i4  Li1+  0.931  0.667  0.140  0.001
  Li_i4  Li1+  0.931  0.733  0.060  0.001
  Li_i4  Li1+  0.731  0.267  0.540  0.001
  Li_i4  Li1+  0.731  0.333  0.460  0.001
  Li_i4  Li1+  0.131  0.867  0.340  0.001
  Li_i4  Li1+  0.131  0.933  0.260  0.001
  Li_i4  Li1+  0.069  0.633  0.040  0.001
  Li_i4  Li1+  0.069  0.767  0.160  0.001
  Li_i4  Li1+  0.269  0.633  0.440  0.001
  Li_i4  Li1+  0.269  0.767  0.560  0.001
  Li_i4  Li1+  0.469  0.233  0.840  0.001
  Li_i4  Li1+  0.469  0.367  0.960  0.001
  Li_i4  Li1+  0.869  0.633  0.240  0.001
  Li_i4  Li1+  0.869  0.767  0.360  0.001
  Li_i4  Li1+  0.931  0.667  0.340  0.001
  Li_i4  Li1+  0.931  0.733  0.260  0.001
  Li_i4  Li1+  0.531  0.267  0.940  0.001
  Li_i4  Li1+  0.531  0.333  0.860  0.001
  Li_i4  Li1+  0.669  0.233  0.640  0.001
  Li_i4  Li1+  0.669  0.367  0.760  0.001
  Li_i4  Li1+  0.731  0.267  0.740  0.001
  Li_i4  Li1+  0.731  0.333  0.660  0.001
  Li_i4  Li1+  0.331  0.667  0.540  0.001
  Li_i4  Li1+  0.331  0.733  0.460  0.001
  Li_i4  Li1+  0.269  0.233  0.040  0.001
  Li_i4  Li1+  0.269  0.367  0.160  0.001
  Li_i4  Li1+  0.869  0.633  0.440  0.001
  Li_i4  Li1+  0.869  0.767  0.560  0.001
  Li_i4  Li1+  0.931  0.667  0.540  0.001
  Li_i4  Li1+  0.931  0.733  0.460  0.001
  Li_i4  Li1+  0.331  0.267  0.140  0.001
  Li_i4  Li1+  0.331  0.333  0.060  0.001
  Li_i4  Li1+  0.131  0.667  0.140  0.001
  Li_i4  Li1+  0.131  0.733  0.060  0.001
  Li_i4  Li1+  0.069  0.033  0.240  0.001
  Li_i4  Li1+  0.069  0.167  0.360  0.001
  Li_i4  Li1+  0.669  0.233  0.840  0.001
  Li_i4  Li1+  0.669  0.367  0.960  0.001
  Li_i4  Li1+  0.731  0.267  0.940  0.001
  Li_i4  Li1+  0.731  0.333  0.860  0.001
  Li_i4  Li1+  0.869  0.633  0.640  0.001
  Li_i4  Li1+  0.869  0.767  0.760  0.001
  Li_i4  Li1+  0.931  0.667  0.740  0.001
  Li_i4  Li1+  0.931  0.733  0.660  0.001
  Li_i4  Li1+  0.469  0.433  0.040  0.001
  Li_i4  Li1+  0.469  0.567  0.160  0.001
  Li_i4  Li1+  0.531  0.467  0.140  0.001
  Li_i4  Li1+  0.531  0.533  0.060  0.001
  Li_i4  Li1+  0.131  0.067  0.340  0.001
  Li_i4  Li1+  0.131  0.133  0.260  0.001
  Li_i4  Li1+  0.269  0.633  0.640  0.001
  Li_i4  Li1+  0.269  0.767  0.760  0.001
  Li_i4  Li1+  0.331  0.667  0.740  0.001
  Li_i4  Li1+  0.331  0.733  0.660  0.001
  Li_i4  Li1+  0.869  0.633  0.840  0.001
  Li_i4  Li1+  0.869  0.767  0.960  0.001
  Li_i4  Li1+  0.931  0.667  0.940  0.001
  Li_i4  Li1+  0.931  0.733  0.860  0.001
  Li_i4  Li1+  0.669  0.433  0.040  0.001
  Li_i4  Li1+  0.669  0.567  0.160  0.001
  Li_i4  Li1+  0.731  0.467  0.140  0.001
  Li_i4  Li1+  0.731  0.533  0.060  0.001
  Li_i4  Li1+  0.069  0.433  0.240  0.001
  Li_i4  Li1+  0.069  0.567  0.360  0.001
  Li_i4  Li1+  0.069  0.833  0.440  0.001
  Li_i4  Li1+  0.069  0.967  0.560  0.001
  Li_i4  Li1+  0.469  0.433  0.240  0.001
  Li_i4  Li1+  0.469  0.567  0.360  0.001
  Li_i4  Li1+  0.869  0.833  0.040  0.001
  Li_i4  Li1+  0.869  0.967  0.160  0.001
  Li_i4  Li1+  0.931  0.867  0.140  0.001
  Li_i4  Li1+  0.931  0.933  0.060  0.001
  Li_i4  Li1+  0.531  0.467  0.340  0.001
  Li_i4  Li1+  0.531  0.533  0.260  0.001
  Li_i4  Li1+  0.269  0.233  0.240  0.001
  Li_i4  Li1+  0.269  0.367  0.360  0.001
  Li_i4  Li1+  0.669  0.433  0.240  0.001
  Li_i4  Li1+  0.669  0.567  0.360  0.001
  Li_i4  Li1+  0.731  0.467  0.340  0.001
  Li_i4  Li1+  0.731  0.533  0.260  0.001
  Li_i4  Li1+  0.331  0.267  0.340  0.001
  Li_i4  Li1+  0.331  0.333  0.260  0.001
  Li_i4  Li1+  0.869  0.833  0.240  0.001
  Li_i4  Li1+  0.869  0.967  0.360  0.001
  Li_i4  Li1+  0.931  0.867  0.340  0.001
  Li_i4  Li1+  0.931  0.933  0.260  0.001
  Li_i4  Li1+  0.131  0.867  0.540  0.001
  Li_i4  Li1+  0.131  0.933  0.460  0.001
  Li_i4  Li1+  0.269  0.633  0.840  0.001
  Li_i4  Li1+  0.269  0.767  0.960  0.001
  Li_i4  Li1+  0.331  0.667  0.940  0.001
  Li_i4  Li1+  0.331  0.733  0.860  0.001
  Li_i4  Li1+  0.469  0.433  0.440  0.001
  Li_i4  Li1+  0.469  0.567  0.560  0.001
  Li_i4  Li1+  0.669  0.433  0.440  0.001
  Li_i4  Li1+  0.669  0.567  0.560  0.001
  Li_i4  Li1+  0.869  0.833  0.440  0.001
  Li_i4  Li1+  0.869  0.967  0.560  0.001
  Li_i4  Li1+  0.931  0.867  0.540  0.001
  Li_i4  Li1+  0.931  0.933  0.460  0.001
  Li_i4  Li1+  0.731  0.467  0.540  0.001
  Li_i4  Li1+  0.731  0.533  0.460  0.001
  Li_i4  Li1+  0.531  0.467  0.540  0.001
  Li_i4  Li1+  0.531  0.533  0.460  0.001
  Li_i4  Li1+  0.131  0.467  0.340  0.001
  Li_i4  Li1+  0.131  0.533  0.260  0.001
  Li_i4  Li1+  0.131  0.067  0.140  0.001
  Li_i4  Li1+  0.131  0.133  0.060  0.001
  Li_i4  Li1+  0.069  0.633  0.240  0.001
  Li_i4  Li1+  0.069  0.767  0.360  0.001
  Li_i4  Li1+  0.869  0.833  0.640  0.001
  Li_i4  Li1+  0.869  0.967  0.760  0.001
  Li_i4  Li1+  0.931  0.867  0.740  0.001
  Li_i4  Li1+  0.931  0.933  0.660  0.001
  Li_i4  Li1+  0.131  0.667  0.340  0.001
  Li_i4  Li1+  0.131  0.733  0.260  0.001
  Li_i4  Li1+  0.669  0.433  0.640  0.001
  Li_i4  Li1+  0.669  0.567  0.760  0.001
  Li_i4  Li1+  0.731  0.467  0.740  0.001
  Li_i4  Li1+  0.731  0.533  0.660  0.001
  Li_i4  Li1+  0.269  0.233  0.440  0.001
  Li_i4  Li1+  0.269  0.367  0.560  0.001
  Li_i4  Li1+  0.469  0.433  0.640  0.001
  Li_i4  Li1+  0.469  0.567  0.760  0.001
  Li_i4  Li1+  0.869  0.833  0.840  0.001
  Li_i4  Li1+  0.869  0.967  0.960  0.001
  Li_i4  Li1+  0.931  0.867  0.940  0.001
  Li_i4  Li1+  0.931  0.933  0.860  0.001
  Li_i4  Li1+  0.531  0.467  0.740  0.001
  Li_i4  Li1+  0.531  0.533  0.660  0.001
  Li_i4  Li1+  0.269  0.833  0.040  0.001
  Li_i4  Li1+  0.269  0.967  0.160  0.001
  Li_i5  Li1+  0.104  0.200  0.500  0.001
  Li_i5  Li1+  0.096  0.300  0.400  0.001
  Li_i5  Li1+  0.904  0.200  0.900  0.001
  Li_i5  Li1+  0.896  0.300  0.800  0.001
  Li_i5  Li1+  0.104  0.000  0.300  0.001
  Li_i5  Li1+  0.096  0.100  0.200  0.001
  Li_i5  Li1+  0.504  0.800  0.700  0.001
  Li_i5  Li1+  0.496  0.900  0.600  0.001
  Li_i5  Li1+  0.104  0.600  0.900  0.001
  Li_i5  Li1+  0.096  0.700  0.800  0.001
  Li_i5  Li1+  0.504  0.400  0.900  0.001
  Li_i5  Li1+  0.496  0.500  0.800  0.001
  Li_i5  Li1+  0.504  0.200  0.300  0.001
  Li_i5  Li1+  0.496  0.300  0.200  0.001
  Li_i5  Li1+  0.704  0.800  0.300  0.001
  Li_i5  Li1+  0.696  0.900  0.200  0.001
  Li_i5  Li1+  0.704  0.200  0.900  0.001
  Li_i5  Li1+  0.696  0.300  0.800  0.001
  Li_i5  Li1+  0.904  0.400  0.100  0.001
  Li_i5  Li1+  0.896  0.500  0.000  0.001
  Li_i5  Li1+  0.304  0.800  0.900  0.001
  Li_i5  Li1+  0.296  0.900  0.800  0.001
  Li_i5  Li1+  0.304  0.000  0.100  0.001
  Li_i5  Li1+  0.296  0.100  0.000  0.001
  Li_i5  Li1+  0.304  0.600  0.700  0.001
  Li_i5  Li1+  0.296  0.700  0.600  0.001
  Li_i5  Li1+  0.104  0.400  0.300  0.001
  Li_i5  Li1+  0.096  0.500  0.200  0.001
  Li_i5  Li1+  0.504  0.800  0.900  0.001
  Li_i5  Li1+  0.496  0.900  0.800  0.001
  Li_i5  Li1+  0.304  0.200  0.700  0.001
  Li_i5  Li1+  0.296  0.300  0.600  0.001
  Li_i5  Li1+  0.704  0.800  0.500  0.001
  Li_i5  Li1+  0.696  0.900  0.400  0.001
  Li_i5  Li1+  0.904  0.400  0.300  0.001
  Li_i5  Li1+  0.896  0.500  0.200  0.001
  Li_i5  Li1+  0.104  0.800  0.500  0.001
  Li_i5  Li1+  0.096  0.900  0.400  0.001
  Li_i5  Li1+  0.704  0.400  0.100  0.001
  Li_i5  Li1+  0.696  0.500  0.000  0.001
  Li_i5  Li1+  0.504  0.600  0.100  0.001
  Li_i5  Li1+  0.496  0.700  0.000  0.001
  Li_i5  Li1+  0.304  0.400  0.700  0.001
  Li_i5  Li1+  0.296  0.500  0.600  0.001
  Li_i5  Li1+  0.504  0.200  0.500  0.001
  Li_i5  Li1+  0.496  0.300  0.400  0.001
  Li_i5  Li1+  0.304  0.000  0.900  0.001
  Li_i5  Li1+  0.296  0.100  0.800  0.001
  Li_i5  Li1+  0.504  0.000  0.100  0.001
  Li_i5  Li1+  0.496  0.100  0.000  0.001
  Li_i5  Li1+  0.904  0.400  0.500  0.001
  Li_i5  Li1+  0.896  0.500  0.400  0.001
  Li_i5  Li1+  0.704  0.800  0.700  0.001
  Li_i5  Li1+  0.696  0.900  0.600  0.001
  Li_i5  Li1+  0.704  0.000  0.100  0.001
  Li_i5  Li1+  0.696  0.100  0.000  0.001
  Li_i5  Li1+  0.104  0.000  0.900  0.001
  Li_i5  Li1+  0.096  0.100  0.800  0.001
  Li_i5  Li1+  0.704  0.400  0.300  0.001
  Li_i5  Li1+  0.696  0.500  0.200  0.001
  Li_i5  Li1+  0.104  0.000  0.700  0.001
  Li_i5  Li1+  0.096  0.100  0.600  0.001
  Li_i5  Li1+  0.304  0.600  0.900  0.001
  Li_i5  Li1+  0.296  0.700  0.800  0.001
  Li_i5  Li1+  0.504  0.600  0.300  0.001
  Li_i5  Li1+  0.496  0.700  0.200  0.001
  Li_i5  Li1+  0.904  0.400  0.700  0.001
  Li_i5  Li1+  0.896  0.500  0.600  0.001
  Li_i5  Li1+  0.104  0.600  0.500  0.001
  Li_i5  Li1+  0.096  0.700  0.400  0.001
  Li_i5  Li1+  0.704  0.800  0.900  0.001
  Li_i5  Li1+  0.696  0.900  0.800  0.001
  Li_i5  Li1+  0.104  0.400  0.700  0.001
  Li_i5  Li1+  0.096  0.500  0.600  0.001
  Li_i5  Li1+  0.504  0.200  0.700  0.001
  Li_i5  Li1+  0.496  0.300  0.600  0.001
  Li_i5  Li1+  0.704  0.000  0.300  0.001
  Li_i5  Li1+  0.696  0.100  0.200  0.001
  Li_i5  Li1+  0.704  0.400  0.500  0.001
  Li_i5  Li1+  0.696  0.500  0.400  0.001
  Li_i5  Li1+  0.104  0.600  0.100  0.001
  Li_i5  Li1+  0.096  0.700  0.000  0.001
  Li_i5  Li1+  0.904  0.400  0.900  0.001
  Li_i5  Li1+  0.896  0.500  0.800  0.001
  Li_i5  Li1+  0.304  0.200  0.900  0.001
  Li_i5  Li1+  0.296  0.300  0.800  0.001
  Li_i5  Li1+  0.504  0.000  0.300  0.001
  Li_i5  Li1+  0.496  0.100  0.200  0.001
  Li_i5  Li1+  0.904  0.000  0.100  0.001
  Li_i5  Li1+  0.896  0.100  0.000  0.001
  Li_i5  Li1+  0.304  0.400  0.900  0.001
  Li_i5  Li1+  0.296  0.500  0.800  0.001
  Li_i5  Li1+  0.504  0.600  0.500  0.001
  Li_i5  Li1+  0.496  0.700  0.400  0.001
  Li_i5  Li1+  0.304  0.000  0.300  0.001
  Li_i5  Li1+  0.296  0.100  0.200  0.001
  Li_i5  Li1+  0.104  0.000  0.100  0.001
  Li_i5  Li1+  0.096  0.100  0.000  0.001
  Li_i5  Li1+  0.904  0.600  0.100  0.001
  Li_i5  Li1+  0.896  0.700  0.000  0.001
  Li_i5  Li1+  0.704  0.400  0.700  0.001
  Li_i5  Li1+  0.696  0.500  0.600  0.001
  Li_i5  Li1+  0.704  0.000  0.500  0.001
  Li_i5  Li1+  0.696  0.100  0.400  0.001
  Li_i5  Li1+  0.304  0.800  0.100  0.001
  Li_i5  Li1+  0.296  0.900  0.000  0.001
  Li_i5  Li1+  0.904  0.000  0.300  0.001
  Li_i5  Li1+  0.896  0.100  0.200  0.001
  Li_i5  Li1+  0.504  0.200  0.900  0.001
  Li_i5  Li1+  0.496  0.300  0.800  0.001
  Li_i5  Li1+  0.304  0.200  0.100  0.001
  Li_i5  Li1+  0.296  0.300  0.000  0.001
  Li_i5  Li1+  0.104  0.800  0.100  0.001
  Li_i5  Li1+  0.096  0.900  0.000  0.001
  Li_i5  Li1+  0.904  0.600  0.300  0.001
  Li_i5  Li1+  0.896  0.700  0.200  0.001
  Li_i5  Li1+  0.104  0.800  0.700  0.001
  Li_i5  Li1+  0.096  0.900  0.600  0.001
  Li_i5  Li1+  0.504  0.600  0.700  0.001
  Li_i5  Li1+  0.496  0.700  0.600  0.001
  Li_i5  Li1+  0.704  0.400  0.900  0.001
  Li_i5  Li1+  0.696  0.500  0.800  0.001
  Li_i5  Li1+  0.504  0.000  0.500  0.001
  Li_i5  Li1+  0.496  0.100  0.400  0.001
  Li_i5  Li1+  0.904  0.000  0.500  0.001
  Li_i5  Li1+  0.896  0.100  0.400  0.001
  Li_i5  Li1+  0.704  0.000  0.700  0.001
  Li_i5  Li1+  0.696  0.100  0.600  0.001
  Li_i5  Li1+  0.104  0.400  0.100  0.001
  Li_i5  Li1+  0.096  0.500  0.000  0.001
  Li_i5  Li1+  0.904  0.600  0.500  0.001
  Li_i5  Li1+  0.896  0.700  0.400  0.001
  Li_i5  Li1+  0.104  0.200  0.100  0.001
  Li_i5  Li1+  0.096  0.300  0.000  0.001
  Li_i5  Li1+  0.304  0.600  0.100  0.001
  Li_i5  Li1+  0.296  0.700  0.000  0.001
  Li_i5  Li1+  0.504  0.400  0.100  0.001
  Li_i5  Li1+  0.496  0.500  0.000  0.001
  Li_i5  Li1+  0.304  0.400  0.100  0.001
  Li_i5  Li1+  0.296  0.500  0.000  0.001
  Li_i5  Li1+  0.704  0.600  0.100  0.001
  Li_i5  Li1+  0.696  0.700  0.000  0.001
  Li_i5  Li1+  0.904  0.000  0.700  0.001
  Li_i5  Li1+  0.896  0.100  0.600  0.001
  Li_i5  Li1+  0.304  0.800  0.300  0.001
  Li_i5  Li1+  0.296  0.900  0.200  0.001
  Li_i5  Li1+  0.904  0.600  0.700  0.001
  Li_i5  Li1+  0.896  0.700  0.600  0.001
  Li_i5  Li1+  0.504  0.600  0.900  0.001
  Li_i5  Li1+  0.496  0.700  0.800  0.001
  Li_i5  Li1+  0.704  0.000  0.900  0.001
  Li_i5  Li1+  0.696  0.100  0.800  0.001
  Li_i5  Li1+  0.104  0.000  0.500  0.001
  Li_i5  Li1+  0.096  0.100  0.400  0.001
  Li_i5  Li1+  0.104  0.200  0.900  0.001
  Li_i5  Li1+  0.096  0.300  0.800  0.001
  Li_i5  Li1+  0.504  0.000  0.700  0.001
  Li_i5  Li1+  0.496  0.100  0.600  0.001
  Li_i5  Li1+  0.304  0.000  0.500  0.001
  Li_i5  Li1+  0.296  0.100  0.400  0.001
  Li_i5  Li1+  0.904  0.000  0.900  0.001
  Li_i5  Li1+  0.896  0.100  0.800  0.001
  Li_i5  Li1+  0.904  0.600  0.900  0.001
  Li_i5  Li1+  0.896  0.700  0.800  0.001
  Li_i5  Li1+  0.704  0.600  0.300  0.001
  Li_i5  Li1+  0.696  0.700  0.200  0.001
  Li_i5  Li1+  0.304  0.200  0.300  0.001
  Li_i5  Li1+  0.296  0.300  0.200  0.001
  Li_i5  Li1+  0.504  0.400  0.300  0.001
  Li_i5  Li1+  0.496  0.500  0.200  0.001
  Li_i5  Li1+  0.104  0.600  0.700  0.001
  Li_i5  Li1+  0.096  0.700  0.600  0.001
  Li_i5  Li1+  0.704  0.200  0.100  0.001
  Li_i5  Li1+  0.696  0.300  0.000  0.001
  Li_i5  Li1+  0.504  0.800  0.100  0.001
  Li_i5  Li1+  0.496  0.900  0.000  0.001
  Li_i5  Li1+  0.104  0.400  0.500  0.001
  Li_i5  Li1+  0.096  0.500  0.400  0.001
  Li_i5  Li1+  0.904  0.800  0.100  0.001
  Li_i5  Li1+  0.896  0.900  0.000  0.001
  Li_i5  Li1+  0.904  0.200  0.100  0.001
  Li_i5  Li1+  0.896  0.300  0.000  0.001
  Li_i5  Li1+  0.304  0.600  0.300  0.001
  Li_i5  Li1+  0.296  0.700  0.200  0.001
  Li_i5  Li1+  0.704  0.600  0.500  0.001
  Li_i5  Li1+  0.696  0.700  0.400  0.001
  Li_i5  Li1+  0.304  0.800  0.500  0.001
  Li_i5  Li1+  0.296  0.900  0.400  0.001
  Li_i5  Li1+  0.104  0.200  0.300  0.001
  Li_i5  Li1+  0.096  0.300  0.200  0.001
  Li_i5  Li1+  0.504  0.000  0.900  0.001
  Li_i5  Li1+  0.496  0.100  0.800  0.001
  Li_i5  Li1+  0.304  0.400  0.300  0.001
  Li_i5  Li1+  0.296  0.500  0.200  0.001
  Li_i5  Li1+  0.904  0.800  0.300  0.001
  Li_i5  Li1+  0.896  0.900  0.200  0.001
  Li_i5  Li1+  0.704  0.200  0.300  0.001
  Li_i5  Li1+  0.696  0.300  0.200  0.001
  Li_i5  Li1+  0.904  0.200  0.300  0.001
  Li_i5  Li1+  0.896  0.300  0.200  0.001
  Li_i5  Li1+  0.504  0.400  0.500  0.001
  Li_i5  Li1+  0.496  0.500  0.400  0.001
  Li_i5  Li1+  0.504  0.800  0.300  0.001
  Li_i5  Li1+  0.496  0.900  0.200  0.001
  Li_i5  Li1+  0.704  0.600  0.700  0.001
  Li_i5  Li1+  0.696  0.700  0.600  0.001
  Li_i5  Li1+  0.104  0.800  0.900  0.001
  Li_i5  Li1+  0.096  0.900  0.800  0.001
  Li_i5  Li1+  0.104  0.800  0.300  0.001
  Li_i5  Li1+  0.096  0.900  0.200  0.001
  Li_i5  Li1+  0.904  0.800  0.500  0.001
  Li_i5  Li1+  0.896  0.900  0.400  0.001
  Li_i5  Li1+  0.104  0.600  0.300  0.001
  Li_i5  Li1+  0.096  0.700  0.200  0.001
  Li_i5  Li1+  0.104  0.400  0.900  0.001
  Li_i5  Li1+  0.096  0.500  0.800  0.001
  Li_i5  Li1+  0.904  0.200  0.500  0.001
  Li_i5  Li1+  0.896  0.300  0.400  0.001
  Li_i5  Li1+  0.304  0.200  0.500  0.001
  Li_i5  Li1+  0.296  0.300  0.400  0.001
  Li_i5  Li1+  0.704  0.200  0.500  0.001
  Li_i5  Li1+  0.696  0.300  0.400  0.001
  Li_i5  Li1+  0.304  0.800  0.700  0.001
  Li_i5  Li1+  0.296  0.900  0.600  0.001
  Li_i5  Li1+  0.704  0.600  0.900  0.001
  Li_i5  Li1+  0.696  0.700  0.800  0.001
  Li_i5  Li1+  0.904  0.800  0.700  0.001
  Li_i5  Li1+  0.896  0.900  0.600  0.001
  Li_i5  Li1+  0.504  0.200  0.100  0.001
  Li_i5  Li1+  0.496  0.300  0.000  0.001
  Li_i5  Li1+  0.504  0.800  0.500  0.001
  Li_i5  Li1+  0.496  0.900  0.400  0.001
  Li_i5  Li1+  0.504  0.400  0.700  0.001
  Li_i5  Li1+  0.496  0.500  0.600  0.001
  Li_i5  Li1+  0.904  0.200  0.700  0.001
  Li_i5  Li1+  0.896  0.300  0.600  0.001
  Li_i5  Li1+  0.304  0.600  0.500  0.001
  Li_i5  Li1+  0.296  0.700  0.400  0.001
  Li_i5  Li1+  0.304  0.000  0.700  0.001
  Li_i5  Li1+  0.296  0.100  0.600  0.001
  Li_i5  Li1+  0.104  0.200  0.700  0.001
  Li_i5  Li1+  0.096  0.300  0.600  0.001
  Li_i5  Li1+  0.904  0.800  0.900  0.001
  Li_i5  Li1+  0.896  0.900  0.800  0.001
  Li_i5  Li1+  0.704  0.200  0.700  0.001
  Li_i5  Li1+  0.696  0.300  0.600  0.001
  Li_i5  Li1+  0.704  0.800  0.100  0.001
  Li_i5  Li1+  0.696  0.900  0.000  0.001
  Li_i5  Li1+  0.304  0.400  0.500  0.001
  Li_i5  Li1+  0.296  0.500  0.400  0.001
  Li0  Li1+  0.508  0.996  0.364  1.000
  Li0  Li1+  0.108  0.196  0.164  1.000
  Li0  Li1+  0.508  0.996  0.564  1.000
  Li0  Li1+  0.108  0.996  0.764  1.000
  Li0  Li1+  0.108  0.396  0.564  1.000
  Li0  Li1+  0.308  0.796  0.364  1.000
  Li0  Li1+  0.108  0.596  0.764  1.000
  Li0  Li1+  0.508  0.996  0.764  1.000
  Li0  Li1+  0.508  0.996  0.964  1.000
  Li0  Li1+  0.308  0.796  0.564  1.000
  Li0  Li1+  0.708  0.196  0.164  1.000
  Li0  Li1+  0.108  0.996  0.964  1.000
  Li0  Li1+  0.308  0.796  0.764  1.000
  Li0  Li1+  0.708  0.196  0.364  1.000
  Li0  Li1+  0.708  0.196  0.564  1.000
  Li0  Li1+  0.308  0.796  0.964  1.000
  Li0  Li1+  0.108  0.196  0.964  1.000
  Li0  Li1+  0.708  0.196  0.764  1.000
  Li0  Li1+  0.308  0.196  0.164  1.000
  Li0  Li1+  0.108  0.596  0.964  1.000
  Li0  Li1+  0.708  0.196  0.964  1.000
  Li0  Li1+  0.108  0.196  0.564  1.000
  Li0  Li1+  0.308  0.996  0.164  1.000
  Li0  Li1+  0.708  0.396  0.164  1.000
  Li0  Li1+  0.708  0.396  0.364  1.000
  Li0  Li1+  0.308  0.996  0.364  1.000
  Li0  Li1+  0.308  0.196  0.364  1.000
  Li0  Li1+  0.108  0.396  0.764  1.000
  Li0  Li1+  0.708  0.396  0.564  1.000
  Li0  Li1+  0.308  0.996  0.564  1.000
  Li0  Li1+  0.708  0.396  0.764  1.000
  Li0  Li1+  0.108  0.796  0.164  1.000
  Li0  Li1+  0.708  0.396  0.964  1.000
  Li0  Li1+  0.308  0.196  0.564  1.000
  Li0  Li1+  0.308  0.996  0.764  1.000
  Li0  Li1+  0.708  0.596  0.164  1.000
  Li0  Li1+  0.708  0.596  0.364  1.000
  Li0  Li1+  0.308  0.996  0.964  1.000
  Li0  Li1+  0.708  0.596  0.564  1.000
  Li0  Li1+  0.308  0.196  0.764  1.000
  Li0  Li1+  0.708  0.596  0.764  1.000
  Li0  Li1+  0.508  0.196  0.164  1.000
  Li0  Li1+  0.108  0.196  0.364  1.000
  Li0  Li1+  0.708  0.596  0.964  1.000
  Li0  Li1+  0.108  0.796  0.364  1.000
  Li0  Li1+  0.508  0.196  0.364  1.000
  Li0  Li1+  0.708  0.796  0.164  1.000
  Li0  Li1+  0.308  0.196  0.964  1.000
  Li0  Li1+  0.108  0.396  0.964  1.000
  Li0  Li1+  0.708  0.796  0.364  1.000
  Li0  Li1+  0.508  0.196  0.564  1.000
  Li0  Li1+  0.708  0.796  0.564  1.000
  Li0  Li1+  0.708  0.796  0.764  1.000
  Li0  Li1+  0.508  0.196  0.764  1.000
  Li0  Li1+  0.308  0.396  0.164  1.000
  Li0  Li1+  0.108  0.396  0.164  1.000
  Li0  Li1+  0.708  0.796  0.964  1.000
  Li0  Li1+  0.108  0.796  0.564  1.000
  Li0  Li1+  0.708  0.996  0.164  1.000
  Li0  Li1+  0.508  0.196  0.964  1.000
  Li0  Li1+  0.708  0.996  0.364  1.000
  Li0  Li1+  0.308  0.396  0.364  1.000
  Li0  Li1+  0.508  0.396  0.164  1.000
  Li0  Li1+  0.708  0.996  0.564  1.000
  Li0  Li1+  0.708  0.996  0.764  1.000
  Li0  Li1+  0.508  0.396  0.364  1.000
  Li0  Li1+  0.708  0.996  0.964  1.000
  Li0  Li1+  0.308  0.396  0.564  1.000
  Li0  Li1+  0.108  0.796  0.764  1.000
  Li0  Li1+  0.908  0.196  0.164  1.000
  Li0  Li1+  0.108  0.596  0.164  1.000
  Li0  Li1+  0.508  0.396  0.564  1.000
  Li0  Li1+  0.908  0.196  0.364  1.000
  Li0  Li1+  0.908  0.196  0.564  1.000
  Li0  Li1+  0.508  0.396  0.764  1.000
  Li0  Li1+  0.308  0.396  0.764  1.000
  Li0  Li1+  0.908  0.196  0.764  1.000
  Li0  Li1+  0.508  0.396  0.964  1.000
  Li0  Li1+  0.908  0.196  0.964  1.000
  Li0  Li1+  0.908  0.396  0.164  1.000
  Li0  Li1+  0.108  0.796  0.964  1.000
  Li0  Li1+  0.508  0.596  0.164  1.000
  Li0  Li1+  0.308  0.396  0.964  1.000
  Li0  Li1+  0.908  0.396  0.364  1.000
  Li0  Li1+  0.908  0.396  0.564  1.000
  Li0  Li1+  0.508  0.596  0.364  1.000
  Li0  Li1+  0.908  0.396  0.764  1.000
  Li0  Li1+  0.108  0.196  0.764  1.000
  Li0  Li1+  0.308  0.596  0.164  1.000
  Li0  Li1+  0.908  0.396  0.964  1.000
  Li0  Li1+  0.508  0.596  0.564  1.000
  Li0  Li1+  0.108  0.596  0.364  1.000
  Li0  Li1+  0.908  0.596  0.164  1.000
  Li0  Li1+  0.108  0.396  0.364  1.000
  Li0  Li1+  0.108  0.996  0.164  1.000
  Li0  Li1+  0.508  0.596  0.764  1.000
  Li0  Li1+  0.908  0.596  0.364  1.000
  Li0  Li1+  0.308  0.596  0.364  1.000
  Li0  Li1+  0.908  0.596  0.564  1.000
  Li0  Li1+  0.508  0.596  0.964  1.000
  Li0  Li1+  0.908  0.596  0.764  1.000
  Li0  Li1+  0.908  0.596  0.964  1.000
  Li0  Li1+  0.508  0.796  0.164  1.000
  Li0  Li1+  0.308  0.596  0.564  1.000
  Li0  Li1+  0.908  0.796  0.164  1.000
  Li0  Li1+  0.108  0.996  0.364  1.000
  Li0  Li1+  0.908  0.796  0.364  1.000
  Li0  Li1+  0.508  0.796  0.364  1.000
  Li0  Li1+  0.908  0.796  0.564  1.000
  Li0  Li1+  0.508  0.796  0.564  1.000
  Li0  Li1+  0.308  0.596  0.764  1.000
  Li0  Li1+  0.908  0.796  0.764  1.000
  Li0  Li1+  0.908  0.796  0.964  1.000
  Li0  Li1+  0.108  0.596  0.564  1.000
  Li0  Li1+  0.508  0.796  0.764  1.000
  Li0  Li1+  0.908  0.996  0.164  1.000
  Li0  Li1+  0.908  0.996  0.364  1.000
  Li0  Li1+  0.308  0.596  0.964  1.000
  Li0  Li1+  0.108  0.996  0.564  1.000
  Li0  Li1+  0.508  0.796  0.964  1.000
  Li0  Li1+  0.908  0.996  0.564  1.000
  Li0  Li1+  0.908  0.996  0.764  1.000
  Li0  Li1+  0.508  0.996  0.164  1.000
  Li0  Li1+  0.908  0.996  0.964  1.000
  Li0  Li1+  0.308  0.796  0.164  1.000
  Li1  Li1+  0.708  0.804  0.436  1.000
  Li1  Li1+  0.708  0.204  0.836  1.000
  Li1  Li1+  0.708  0.804  0.636  1.000
  Li1  Li1+  0.508  0.804  0.236  1.000
  Li1  Li1+  0.508  0.204  0.236  1.000
  Li1  Li1+  0.308  0.004  0.436  1.000
  Li1  Li1+  0.708  0.804  0.836  1.000
  Li1  Li1+  0.708  0.004  0.636  1.000
  Li1  Li1+  0.308  0.204  0.436  1.000
  Li1  Li1+  0.308  0.804  0.636  1.000
  Li1  Li1+  0.108  0.604  0.636  1.000
  Li1  Li1+  0.308  0.604  0.436  1.000
  Li1  Li1+  0.908  0.004  0.036  1.000
  Li1  Li1+  0.708  0.404  0.036  1.000
  Li1  Li1+  0.108  0.404  0.036  1.000
  Li1  Li1+  0.308  0.004  0.036  1.000
  Li1  Li1+  0.508  0.204  0.436  1.000
  Li1  Li1+  0.708  0.404  0.236  1.000
  Li1  Li1+  0.908  0.004  0.236  1.000
  Li1  Li1+  0.308  0.604  0.236  1.000
  Li1  Li1+  0.908  0.004  0.436  1.000
  Li1  Li1+  0.308  0.804  0.836  1.000
  Li1  Li1+  0.508  0.204  0.636  1.000
  Li1  Li1+  0.108  0.404  0.836  1.000
  Li1  Li1+  0.308  0.204  0.636  1.000
  Li1  Li1+  0.708  0.404  0.436  1.000
  Li1  Li1+  0.908  0.004  0.636  1.000
  Li1  Li1+  0.708  0.004  0.036  1.000
  Li1  Li1+  0.508  0.204  0.836  1.000
  Li1  Li1+  0.308  0.004  0.636  1.000
  Li1  Li1+  0.908  0.004  0.836  1.000
  Li1  Li1+  0.108  0.004  0.436  1.000
  Li1  Li1+  0.908  0.204  0.036  1.000
  Li1  Li1+  0.108  0.004  0.236  1.000
  Li1  Li1+  0.108  0.604  0.836  1.000
  Li1  Li1+  0.708  0.404  0.636  1.000
  Li1  Li1+  0.508  0.404  0.036  1.000
  Li1  Li1+  0.708  0.004  0.836  1.000
  Li1  Li1+  0.308  0.204  0.836  1.000
  Li1  Li1+  0.508  0.004  0.036  1.000
  Li1  Li1+  0.908  0.204  0.236  1.000
  Li1  Li1+  0.108  0.804  0.636  1.000
  Li1  Li1+  0.908  0.204  0.436  1.000
  Li1  Li1+  0.108  0.804  0.836  1.000
  Li1  Li1+  0.508  0.404  0.236  1.000
  Li1  Li1+  0.708  0.404  0.836  1.000
  Li1  Li1+  0.908  0.204  0.636  1.000
  Li1  Li1+  0.308  0.804  0.036  1.000
  Li1  Li1+  0.108  0.004  0.636  1.000
  Li1  Li1+  0.108  0.604  0.236  1.000
  Li1  Li1+  0.308  0.404  0.036  1.000
  Li1  Li1+  0.108  0.404  0.636  1.000
  Li1  Li1+  0.908  0.204  0.836  1.000
  Li1  Li1+  0.508  0.004  0.236  1.000
  Li1  Li1+  0.508  0.404  0.436  1.000
  Li1  Li1+  0.708  0.204  0.036  1.000
  Li1  Li1+  0.108  0.404  0.236  1.000
  Li1  Li1+  0.708  0.604  0.036  1.000
  Li1  Li1+  0.908  0.404  0.036  1.000
  Li1  Li1+  0.308  0.604  0.636  1.000
  Li1  Li1+  0.108  0.204  0.236  1.000
  Li1  Li1+  0.308  0.004  0.836  1.000
  Li1  Li1+  0.108  0.804  0.036  1.000
  Li1  Li1+  0.708  0.204  0.236  1.000
  Li1  Li1+  0.508  0.404  0.636  1.000
  Li1  Li1+  0.108  0.204  0.836  1.000
  Li1  Li1+  0.908  0.404  0.236  1.000
  Li1  Li1+  0.508  0.804  0.436  1.000
  Li1  Li1+  0.308  0.404  0.236  1.000
  Li1  Li1+  0.708  0.604  0.236  1.000
  Li1  Li1+  0.908  0.404  0.436  1.000
  Li1  Li1+  0.308  0.804  0.236  1.000
  Li1  Li1+  0.508  0.404  0.836  1.000
  Li1  Li1+  0.508  0.004  0.436  1.000
  Li1  Li1+  0.908  0.404  0.636  1.000
  Li1  Li1+  0.708  0.004  0.236  1.000
  Li1  Li1+  0.908  0.404  0.836  1.000
  Li1  Li1+  0.708  0.604  0.436  1.000
  Li1  Li1+  0.508  0.604  0.036  1.000
  Li1  Li1+  0.308  0.004  0.236  1.000
  Li1  Li1+  0.308  0.404  0.436  1.000
  Li1  Li1+  0.708  0.604  0.636  1.000
  Li1  Li1+  0.908  0.604  0.036  1.000
  Li1  Li1+  0.508  0.804  0.636  1.000
  Li1  Li1+  0.108  0.804  0.236  1.000
  Li1  Li1+  0.508  0.004  0.636  1.000
  Li1  Li1+  0.908  0.604  0.236  1.000
  Li1  Li1+  0.108  0.204  0.636  1.000
  Li1  Li1+  0.508  0.604  0.236  1.000
  Li1  Li1+  0.308  0.204  0.036  1.000
  Li1  Li1+  0.908  0.604  0.436  1.000
  Li1  Li1+  0.708  0.004  0.436  1.000
  Li1  Li1+  0.508  0.604  0.436  1.000
  Li1  Li1+  0.108  0.204  0.036  1.000
  Li1  Li1+  0.308  0.404  0.636  1.000
  Li1  Li1+  0.708  0.204  0.436  1.000
  Li1  Li1+  0.908  0.604  0.636  1.000
  Li1  Li1+  0.708  0.604  0.836  1.000
  Li1  Li1+  0.108  0.404  0.436  1.000
  Li1  Li1+  0.908  0.604  0.836  1.000
  Li1  Li1+  0.108  0.204  0.436  1.000
  Li1  Li1+  0.108  0.604  0.436  1.000
  Li1  Li1+  0.508  0.604  0.636  1.000
  Li1  Li1+  0.308  0.804  0.436  1.000
  Li1  Li1+  0.908  0.804  0.036  1.000
  Li1  Li1+  0.708  0.804  0.036  1.000
  Li1  Li1+  0.908  0.804  0.236  1.000
  Li1  Li1+  0.308  0.604  0.836  1.000
  Li1  Li1+  0.308  0.404  0.836  1.000
  Li1  Li1+  0.508  0.004  0.836  1.000
  Li1  Li1+  0.108  0.804  0.436  1.000
  Li1  Li1+  0.708  0.204  0.636  1.000
  Li1  Li1+  0.508  0.604  0.836  1.000
  Li1  Li1+  0.708  0.804  0.236  1.000
  Li1  Li1+  0.108  0.004  0.036  1.000
  Li1  Li1+  0.908  0.804  0.436  1.000
  Li1  Li1+  0.508  0.804  0.836  1.000
  Li1  Li1+  0.908  0.804  0.636  1.000
  Li1  Li1+  0.308  0.204  0.236  1.000
  Li1  Li1+  0.508  0.804  0.036  1.000
  Li1  Li1+  0.108  0.604  0.036  1.000
  Li1  Li1+  0.908  0.804  0.836  1.000
  Li1  Li1+  0.508  0.204  0.036  1.000
  Li1  Li1+  0.308  0.604  0.036  1.000
  Li1  Li1+  0.108  0.004  0.836  1.000
  Li2  Li1+  0.692  0.704  0.864  1.000
  Li2  Li1+  0.092  0.504  0.264  1.000
  Li2  Li1+  0.892  0.304  0.464  1.000
  Li2  Li1+  0.492  0.504  0.264  1.000
  Li2  Li1+  0.292  0.104  0.064  1.000
  Li2  Li1+  0.292  0.104  0.664  1.000
  Li2  Li1+  0.692  0.504  0.464  1.000
  Li2  Li1+  0.092  0.104  0.264  1.000
  Li2  Li1+  0.892  0.304  0.664  1.000
  Li2  Li1+  0.292  0.504  0.064  1.000
  Li2  Li1+  0.492  0.104  0.864  1.000
  Li2  Li1+  0.692  0.904  0.064  1.000
  Li2  Li1+  0.092  0.104  0.064  1.000
  Li2  Li1+  0.492  0.504  0.464  1.000
  Li2  Li1+  0.692  0.104  0.664  1.000
  Li2  Li1+  0.892  0.304  0.864  1.000
  Li2  Li1+  0.692  0.104  0.064  1.000
  Li2  Li1+  0.492  0.104  0.064  1.000
  Li2  Li1+  0.092  0.904  0.064  1.000
  Li2  Li1+  0.292  0.304  0.264  1.000
  Li2  Li1+  0.692  0.904  0.264  1.000
  Li2  Li1+  0.092  0.704  0.264  1.000
  Li2  Li1+  0.692  0.504  0.664  1.000
  Li2  Li1+  0.492  0.304  0.064  1.000
  Li2  Li1+  0.292  0.704  0.264  1.000
  Li2  Li1+  0.892  0.504  0.064  1.000
  Li2  Li1+  0.092  0.104  0.464  1.000
  Li2  Li1+  0.692  0.904  0.464  1.000
  Li2  Li1+  0.492  0.504  0.664  1.000
  Li2  Li1+  0.092  0.504  0.664  1.000
  Li2  Li1+  0.692  0.304  0.464  1.000
  Li2  Li1+  0.292  0.704  0.464  1.000
  Li2  Li1+  0.892  0.504  0.264  1.000
  Li2  Li1+  0.092  0.304  0.864  1.000
  Li2  Li1+  0.092  0.504  0.064  1.000
  Li2  Li1+  0.692  0.904  0.664  1.000
  Li2  Li1+  0.292  0.504  0.264  1.000
  Li2  Li1+  0.292  0.704  0.664  1.000
  Li2  Li1+  0.692  0.504  0.864  1.000
  Li2  Li1+  0.892  0.504  0.464  1.000
  Li2  Li1+  0.492  0.304  0.264  1.000
  Li2  Li1+  0.092  0.704  0.664  1.000
  Li2  Li1+  0.092  0.704  0.064  1.000
  Li2  Li1+  0.292  0.904  0.464  1.000
  Li2  Li1+  0.492  0.504  0.864  1.000
  Li2  Li1+  0.692  0.904  0.864  1.000
  Li2  Li1+  0.292  0.304  0.464  1.000
  Li2  Li1+  0.892  0.504  0.664  1.000
  Li2  Li1+  0.692  0.304  0.664  1.000
  Li2  Li1+  0.492  0.104  0.264  1.000
  Li2  Li1+  0.892  0.504  0.864  1.000
  Li2  Li1+  0.492  0.704  0.064  1.000
  Li2  Li1+  0.092  0.104  0.664  1.000
  Li2  Li1+  0.692  0.104  0.264  1.000
  Li2  Li1+  0.292  0.504  0.464  1.000
  Li2  Li1+  0.892  0.104  0.064  1.000
  Li2  Li1+  0.292  0.104  0.864  1.000
  Li2  Li1+  0.092  0.904  0.264  1.000
  Li2  Li1+  0.892  0.704  0.064  1.000
  Li2  Li1+  0.492  0.304  0.464  1.000
  Li2  Li1+  0.092  0.304  0.064  1.000
  Li2  Li1+  0.692  0.704  0.064  1.000
  Li2  Li1+  0.492  0.904  0.864  1.000
  Li2  Li1+  0.492  0.704  0.264  1.000
  Li2  Li1+  0.892  0.704  0.264  1.000
  Li2  Li1+  0.092  0.304  0.664  1.000
  Li2  Li1+  0.692  0.104  0.864  1.000
  Li2  Li1+  0.292  0.104  0.464  1.000
  Li2  Li1+  0.692  0.304  0.864  1.000
  Li2  Li1+  0.492  0.904  0.464  1.000
  Li2  Li1+  0.892  0.104  0.264  1.000
  Li2  Li1+  0.092  0.504  0.464  1.000
  Li2  Li1+  0.892  0.704  0.464  1.000
  Li2  Li1+  0.692  0.704  0.264  1.000
  Li2  Li1+  0.292  0.904  0.064  1.000
  Li2  Li1+  0.292  0.504  0.664  1.000
  Li2  Li1+  0.492  0.704  0.464  1.000
  Li2  Li1+  0.892  0.704  0.664  1.000
  Li2  Li1+  0.492  0.304  0.664  1.000
  Li2  Li1+  0.892  0.104  0.464  1.000
  Li2  Li1+  0.292  0.304  0.664  1.000
  Li2  Li1+  0.092  0.104  0.864  1.000
  Li2  Li1+  0.492  0.904  0.664  1.000
  Li2  Li1+  0.292  0.904  0.664  1.000
  Li2  Li1+  0.892  0.704  0.864  1.000
  Li2  Li1+  0.492  0.104  0.464  1.000
  Li2  Li1+  0.692  0.104  0.464  1.000
  Li2  Li1+  0.092  0.504  0.864  1.000
  Li2  Li1+  0.492  0.704  0.664  1.000
  Li2  Li1+  0.892  0.104  0.664  1.000
  Li2  Li1+  0.692  0.704  0.464  1.000
  Li2  Li1+  0.092  0.904  0.664  1.000
  Li2  Li1+  0.892  0.904  0.064  1.000
  Li2  Li1+  0.092  0.904  0.464  1.000
  Li2  Li1+  0.492  0.304  0.864  1.000
  Li2  Li1+  0.092  0.704  0.864  1.000
  Li2  Li1+  0.292  0.504  0.864  1.000
  Li2  Li1+  0.892  0.904  0.264  1.000
  Li2  Li1+  0.492  0.704  0.864  1.000
  Li2  Li1+  0.892  0.104  0.864  1.000
  Li2  Li1+  0.692  0.304  0.064  1.000
  Li2  Li1+  0.292  0.304  0.064  1.000
  Li2  Li1+  0.692  0.704  0.664  1.000
  Li2  Li1+  0.492  0.104  0.664  1.000
  Li2  Li1+  0.892  0.304  0.064  1.000
  Li2  Li1+  0.292  0.304  0.864  1.000
  Li2  Li1+  0.692  0.504  0.064  1.000
  Li2  Li1+  0.092  0.304  0.464  1.000
  Li2  Li1+  0.092  0.904  0.864  1.000
  Li2  Li1+  0.892  0.904  0.464  1.000
  Li2  Li1+  0.492  0.504  0.064  1.000
  Li2  Li1+  0.092  0.704  0.464  1.000
  Li2  Li1+  0.492  0.904  0.064  1.000
  Li2  Li1+  0.892  0.904  0.664  1.000
  Li2  Li1+  0.292  0.704  0.864  1.000
  Li2  Li1+  0.092  0.304  0.264  1.000
  Li2  Li1+  0.692  0.504  0.264  1.000
  Li2  Li1+  0.292  0.904  0.864  1.000
  Li2  Li1+  0.292  0.704  0.064  1.000
  Li2  Li1+  0.892  0.904  0.864  1.000
  Li2  Li1+  0.892  0.304  0.264  1.000
  Li2  Li1+  0.292  0.104  0.264  1.000
  Li2  Li1+  0.292  0.904  0.264  1.000
  Li2  Li1+  0.692  0.304  0.264  1.000
  Li2  Li1+  0.492  0.904  0.264  1.000
  Li3  Li1+  0.892  0.496  0.336  1.000
  Li3  Li1+  0.292  0.696  0.736  1.000
  Li3  Li1+  0.092  0.096  0.536  1.000
  Li3  Li1+  0.292  0.496  0.336  1.000
  Li3  Li1+  0.892  0.096  0.336  1.000
  Li3  Li1+  0.692  0.496  0.736  1.000
  Li3  Li1+  0.692  0.296  0.136  1.000
  Li3  Li1+  0.692  0.096  0.736  1.000
  Li3  Li1+  0.492  0.296  0.736  1.000
  Li3  Li1+  0.892  0.496  0.536  1.000
  Li3  Li1+  0.092  0.296  0.936  1.000
  Li3  Li1+  0.892  0.096  0.536  1.000
  Li3  Li1+  0.292  0.096  0.536  1.000
  Li3  Li1+  0.492  0.496  0.936  1.000
  Li3  Li1+  0.292  0.296  0.736  1.000
  Li3  Li1+  0.692  0.096  0.336  1.000
  Li3  Li1+  0.692  0.696  0.936  1.000
  Li3  Li1+  0.692  0.296  0.936  1.000
  Li3  Li1+  0.092  0.096  0.936  1.000
  Li3  Li1+  0.892  0.496  0.736  1.000
  Li3  Li1+  0.292  0.096  0.336  1.000
  Li3  Li1+  0.492  0.896  0.536  1.000
  Li3  Li1+  0.692  0.496  0.936  1.000
  Li3  Li1+  0.892  0.496  0.936  1.000
  Li3  Li1+  0.892  0.096  0.736  1.000
  Li3  Li1+  0.492  0.696  0.136  1.000
  Li3  Li1+  0.492  0.096  0.936  1.000
  Li3  Li1+  0.292  0.496  0.536  1.000
  Li3  Li1+  0.292  0.896  0.736  1.000
  Li3  Li1+  0.692  0.896  0.136  1.000
  Li3  Li1+  0.092  0.696  0.936  1.000
  Li3  Li1+  0.092  0.896  0.336  1.000
  Li3  Li1+  0.492  0.296  0.936  1.000
  Li3  Li1+  0.292  0.896  0.336  1.000
  Li3  Li1+  0.092  0.296  0.736  1.000
  Li3  Li1+  0.892  0.696  0.136  1.000
  Li3  Li1+  0.892  0.096  0.936  1.000
  Li3  Li1+  0.092  0.296  0.136  1.000
  Li3  Li1+  0.692  0.296  0.336  1.000
  Li3  Li1+  0.492  0.096  0.336  1.000
  Li3  Li1+  0.292  0.296  0.336  1.000
  Li3  Li1+  0.092  0.096  0.136  1.000
  Li3  Li1+  0.092  0.496  0.536  1.000
  Li3  Li1+  0.492  0.696  0.336  1.000
  Li3  Li1+  0.092  0.896  0.736  1.000
  Li3  Li1+  0.892  0.696  0.336  1.000
  Li3  Li1+  0.892  0.296  0.136  1.000
  Li3  Li1+  0.692  0.896  0.336  1.000
  Li3  Li1+  0.292  0.296  0.936  1.000
  Li3  Li1+  0.292  0.696  0.536  1.000
  Li3  Li1+  0.492  0.496  0.136  1.000
  Li3  Li1+  0.292  0.096  0.936  1.000
  Li3  Li1+  0.092  0.496  0.736  1.000
  Li3  Li1+  0.492  0.296  0.136  1.000
  Li3  Li1+  0.892  0.696  0.536  1.000
  Li3  Li1+  0.692  0.096  0.536  1.000
  Li3  Li1+  0.692  0.696  0.136  1.000
  Li3  Li1+  0.092  0.296  0.336  1.000
  Li3  Li1+  0.292  0.496  0.736  1.000
  Li3  Li1+  0.692  0.496  0.136  1.000
  Li3  Li1+  0.492  0.696  0.536  1.000
  Li3  Li1+  0.692  0.896  0.536  1.000
  Li3  Li1+  0.892  0.696  0.736  1.000
  Li3  Li1+  0.692  0.096  0.136  1.000
  Li3  Li1+  0.892  0.296  0.336  1.000
  Li3  Li1+  0.092  0.496  0.936  1.000
  Li3  Li1+  0.492  0.896  0.936  1.000
  Li3  Li1+  0.092  0.096  0.736  1.000
  Li3  Li1+  0.092  0.496  0.336  1.000
  Li3  Li1+  0.692  0.496  0.336  1.000
  Li3  Li1+  0.892  0.696  0.936  1.000
  Li3  Li1+  0.692  0.096  0.936  1.000
  Li3  Li1+  0.092  0.496  0.136  1.000
  Li3  Li1+  0.492  0.696  0.736  1.000
  Li3  Li1+  0.892  0.296  0.536  1.000
  Li3  Li1+  0.292  0.896  0.936  1.000
  Li3  Li1+  0.492  0.496  0.336  1.000
  Li3  Li1+  0.692  0.896  0.736  1.000
  Li3  Li1+  0.692  0.696  0.336  1.000
  Li3  Li1+  0.492  0.296  0.336  1.000
  Li3  Li1+  0.892  0.896  0.136  1.000
  Li3  Li1+  0.292  0.696  0.936  1.000
  Li3  Li1+  0.092  0.896  0.536  1.000
  Li3  Li1+  0.092  0.696  0.136  1.000
  Li3  Li1+  0.292  0.496  0.936  1.000
  Li3  Li1+  0.292  0.496  0.136  1.000
  Li3  Li1+  0.892  0.296  0.736  1.000
  Li3  Li1+  0.692  0.296  0.536  1.000
  Li3  Li1+  0.892  0.896  0.336  1.000
  Li3  Li1+  0.092  0.696  0.736  1.000
  Li3  Li1+  0.092  0.296  0.536  1.000
  Li3  Li1+  0.492  0.696  0.936  1.000
  Li3  Li1+  0.492  0.096  0.536  1.000
  Li3  Li1+  0.292  0.296  0.536  1.000
  Li3  Li1+  0.292  0.096  0.736  1.000
  Li3  Li1+  0.492  0.496  0.536  1.000
  Li3  Li1+  0.492  0.896  0.736  1.000
  Li3  Li1+  0.692  0.896  0.936  1.000
  Li3  Li1+  0.892  0.296  0.936  1.000
  Li3  Li1+  0.292  0.896  0.136  1.000
  Li3  Li1+  0.092  0.896  0.136  1.000
  Li3  Li1+  0.092  0.096  0.336  1.000
  Li3  Li1+  0.692  0.496  0.536  1.000
  Li3  Li1+  0.892  0.896  0.536  1.000
  Li3  Li1+  0.692  0.696  0.536  1.000
  Li3  Li1+  0.092  0.896  0.936  1.000
  Li3  Li1+  0.292  0.896  0.536  1.000
  Li3  Li1+  0.492  0.896  0.136  1.000
  Li3  Li1+  0.892  0.096  0.136  1.000
  Li3  Li1+  0.892  0.896  0.736  1.000
  Li3  Li1+  0.292  0.096  0.136  1.000
  Li3  Li1+  0.292  0.696  0.136  1.000
  Li3  Li1+  0.292  0.296  0.136  1.000
  Li3  Li1+  0.492  0.296  0.536  1.000
  Li3  Li1+  0.892  0.496  0.136  1.000
  Li3  Li1+  0.092  0.696  0.336  1.000
  Li3  Li1+  0.692  0.696  0.736  1.000
  Li3  Li1+  0.892  0.896  0.936  1.000
  Li3  Li1+  0.692  0.296  0.736  1.000
  Li3  Li1+  0.492  0.496  0.736  1.000
  Li3  Li1+  0.492  0.096  0.736  1.000
  Li3  Li1+  0.292  0.696  0.336  1.000
  Li3  Li1+  0.092  0.696  0.536  1.000
  Li3  Li1+  0.492  0.896  0.336  1.000
  Li3  Li1+  0.492  0.096  0.136  1.000
  Li4  Li1+  0.035  0.465  0.558  1.000
  Li4  Li1+  0.235  0.865  0.158  1.000
  Li4  Li1+  0.635  0.065  0.958  1.000
  Li4  Li1+  0.035  0.865  0.958  1.000
  Li4  Li1+  0.235  0.065  0.958  1.000
  Li4  Li1+  0.835  0.265  0.358  1.000
  Li4  Li1+  0.635  0.465  0.958  1.000
  Li4  Li1+  0.635  0.865  0.958  1.000
  Li4  Li1+  0.035  0.265  0.758  1.000
  Li4  Li1+  0.235  0.865  0.958  1.000
  Li4  Li1+  0.835  0.665  0.158  1.000
  Li4  Li1+  0.435  0.065  0.358  1.000
  Li4  Li1+  0.635  0.465  0.358  1.000
  Li4  Li1+  0.235  0.065  0.758  1.000
  Li4  Li1+  0.635  0.265  0.758  1.000
  Li4  Li1+  0.635  0.665  0.958  1.000
  Li4  Li1+  0.435  0.665  0.358  1.000
  Li4  Li1+  0.235  0.065  0.558  1.000
  Li4  Li1+  0.635  0.265  0.358  1.000
  Li4  Li1+  0.435  0.465  0.358  1.000
  Li4  Li1+  0.835  0.665  0.358  1.000
  Li4  Li1+  0.835  0.265  0.558  1.000
  Li4  Li1+  0.435  0.265  0.558  1.000
  Li4  Li1+  0.835  0.065  0.158  1.000
  Li4  Li1+  0.035  0.265  0.358  1.000
  Li4  Li1+  0.035  0.465  0.958  1.000
  Li4  Li1+  0.635  0.065  0.758  1.000
  Li4  Li1+  0.235  0.465  0.158  1.000
  Li4  Li1+  0.235  0.465  0.758  1.000
  Li4  Li1+  0.635  0.665  0.158  1.000
  Li4  Li1+  0.635  0.065  0.158  1.000
  Li4  Li1+  0.035  0.465  0.158  1.000
  Li4  Li1+  0.435  0.065  0.958  1.000
  Li4  Li1+  0.835  0.265  0.758  1.000
  Li4  Li1+  0.835  0.665  0.558  1.000
  Li4  Li1+  0.035  0.865  0.158  1.000
  Li4  Li1+  0.035  0.665  0.358  1.000
  Li4  Li1+  0.435  0.665  0.558  1.000
  Li4  Li1+  0.035  0.265  0.558  1.000
  Li4  Li1+  0.235  0.065  0.158  1.000
  Li4  Li1+  0.035  0.665  0.158  1.000
  Li4  Li1+  0.635  0.865  0.158  1.000
  Li4  Li1+  0.435  0.465  0.558  1.000
  Li4  Li1+  0.035  0.265  0.158  1.000
  Li4  Li1+  0.635  0.465  0.558  1.000
  Li4  Li1+  0.835  0.665  0.758  1.000
  Li4  Li1+  0.035  0.065  0.558  1.000
  Li4  Li1+  0.835  0.265  0.958  1.000
  Li4  Li1+  0.035  0.865  0.558  1.000
  Li4  Li1+  0.635  0.065  0.558  1.000
  Li4  Li1+  0.035  0.065  0.758  1.000
  Li4  Li1+  0.835  0.065  0.358  1.000
  Li4  Li1+  0.235  0.265  0.758  1.000
  Li4  Li1+  0.235  0.665  0.958  1.000
  Li4  Li1+  0.235  0.265  0.358  1.000
  Li4  Li1+  0.835  0.665  0.958  1.000
  Li4  Li1+  0.435  0.665  0.758  1.000
  Li4  Li1+  0.435  0.265  0.758  1.000
  Li4  Li1+  0.635  0.265  0.958  1.000
  Li4  Li1+  0.435  0.065  0.158  1.000
  Li4  Li1+  0.835  0.065  0.558  1.000
  Li4  Li1+  0.235  0.865  0.758  1.000
  Li4  Li1+  0.635  0.665  0.358  1.000
  Li4  Li1+  0.435  0.065  0.558  1.000
  Li4  Li1+  0.235  0.465  0.958  1.000
  Li4  Li1+  0.835  0.865  0.158  1.000
  Li4  Li1+  0.635  0.865  0.358  1.000
  Li4  Li1+  0.835  0.465  0.158  1.000
  Li4  Li1+  0.435  0.865  0.958  1.000
  Li4  Li1+  0.435  0.865  0.558  1.000
  Li4  Li1+  0.035  0.665  0.958  1.000
  Li4  Li1+  0.235  0.665  0.558  1.000
  Li4  Li1+  0.435  0.465  0.758  1.000
  Li4  Li1+  0.035  0.065  0.958  1.000
  Li4  Li1+  0.435  0.265  0.158  1.000
  Li4  Li1+  0.635  0.465  0.758  1.000
  Li4  Li1+  0.235  0.465  0.358  1.000
  Li4  Li1+  0.035  0.665  0.558  1.000
  Li4  Li1+  0.435  0.665  0.958  1.000
  Li4  Li1+  0.835  0.865  0.358  1.000
  Li4  Li1+  0.835  0.065  0.758  1.000
  Li4  Li1+  0.035  0.065  0.358  1.000
  Li4  Li1+  0.835  0.465  0.358  1.000
  Li4  Li1+  0.235  0.065  0.358  1.000
  Li4  Li1+  0.635  0.065  0.358  1.000
  Li4  Li1+  0.635  0.865  0.558  1.000
  Li4  Li1+  0.435  0.265  0.958  1.000
  Li4  Li1+  0.035  0.665  0.758  1.000
  Li4  Li1+  0.635  0.265  0.558  1.000
  Li4  Li1+  0.435  0.865  0.758  1.000
  Li4  Li1+  0.635  0.665  0.558  1.000
  Li4  Li1+  0.235  0.265  0.158  1.000
  Li4  Li1+  0.835  0.065  0.958  1.000
  Li4  Li1+  0.835  0.865  0.558  1.000
  Li4  Li1+  0.635  0.265  0.158  1.000
  Li4  Li1+  0.835  0.465  0.558  1.000
  Li4  Li1+  0.435  0.465  0.958  1.000
  Li4  Li1+  0.235  0.665  0.758  1.000
  Li4  Li1+  0.035  0.465  0.758  1.000
  Li4  Li1+  0.435  0.865  0.158  1.000
  Li4  Li1+  0.235  0.665  0.358  1.000
  Li4  Li1+  0.235  0.265  0.958  1.000
  Li4  Li1+  0.235  0.665  0.158  1.000
  Li4  Li1+  0.835  0.865  0.758  1.000
  Li4  Li1+  0.635  0.465  0.158  1.000
  Li4  Li1+  0.035  0.265  0.958  1.000
  Li4  Li1+  0.235  0.865  0.558  1.000
  Li4  Li1+  0.435  0.065  0.758  1.000
  Li4  Li1+  0.035  0.465  0.358  1.000
  Li4  Li1+  0.035  0.865  0.358  1.000
  Li4  Li1+  0.835  0.465  0.758  1.000
  Li4  Li1+  0.835  0.265  0.158  1.000
  Li4  Li1+  0.435  0.465  0.158  1.000
  Li4  Li1+  0.635  0.865  0.758  1.000
  Li4  Li1+  0.035  0.865  0.758  1.000
  Li4  Li1+  0.835  0.865  0.958  1.000
  Li4  Li1+  0.435  0.265  0.358  1.000
  Li4  Li1+  0.235  0.465  0.558  1.000
  Li4  Li1+  0.435  0.865  0.358  1.000
  Li4  Li1+  0.635  0.665  0.758  1.000
  Li4  Li1+  0.035  0.065  0.158  1.000
  Li4  Li1+  0.435  0.665  0.158  1.000
  Li4  Li1+  0.835  0.465  0.958  1.000
  Li4  Li1+  0.235  0.265  0.558  1.000
  Li4  Li1+  0.235  0.865  0.358  1.000
  Li5  Li1+  0.635  0.135  0.442  1.000
  Li5  Li1+  0.435  0.535  0.442  1.000
  Li5  Li1+  0.635  0.135  0.642  1.000
  Li5  Li1+  0.035  0.535  0.842  1.000
  Li5  Li1+  0.835  0.335  0.842  1.000
  Li5  Li1+  0.235  0.935  0.242  1.000
  Li5  Li1+  0.635  0.535  0.442  1.000
  Li5  Li1+  0.035  0.735  0.842  1.000
  Li5  Li1+  0.635  0.735  0.042  1.000
  Li5  Li1+  0.835  0.135  0.642  1.000
  Li5  Li1+  0.235  0.735  0.842  1.000
  Li5  Li1+  0.235  0.935  0.442  1.000
  Li5  Li1+  0.235  0.535  0.642  1.000
  Li5  Li1+  0.635  0.935  0.642  1.000
  Li5  Li1+  0.035  0.935  0.842  1.000
  Li5  Li1+  0.835  0.735  0.442  1.000
  Li5  Li1+  0.435  0.335  0.242  1.000
  Li5  Li1+  0.435  0.335  0.842  1.000
  Li5  Li1+  0.635  0.135  0.042  1.000
  Li5  Li1+  0.435  0.735  0.442  1.000
  Li5  Li1+  0.035  0.335  0.042  1.000
  Li5  Li1+  0.635  0.735  0.842  1.000
  Li5  Li1+  0.035  0.135  0.442  1.000
  Li5  Li1+  0.235  0.335  0.442  1.000
  Li5  Li1+  0.835  0.535  0.042  1.000
  Li5  Li1+  0.635  0.335  0.242  1.000
  Li5  Li1+  0.435  0.135  0.042  1.000
  Li5  Li1+  0.835  0.135  0.842  1.000
  Li5  Li1+  0.835  0.735  0.642  1.000
  Li5  Li1+  0.035  0.335  0.442  1.000
  Li5  Li1+  0.035  0.335  0.642  1.000
  Li5  Li1+  0.235  0.735  0.242  1.000
  Li5  Li1+  0.435  0.535  0.642  1.000
  Li5  Li1+  0.635  0.535  0.042  1.000
  Li5  Li1+  0.635  0.535  0.642  1.000
  Li5  Li1+  0.235  0.735  0.442  1.000
  Li5  Li1+  0.235  0.535  0.242  1.000
  Li5  Li1+  0.635  0.935  0.842  1.000
  Li5  Li1+  0.235  0.335  0.842  1.000
  Li5  Li1+  0.035  0.935  0.442  1.000
  Li5  Li1+  0.635  0.335  0.642  1.000
  Li5  Li1+  0.835  0.735  0.842  1.000
  Li5  Li1+  0.635  0.735  0.242  1.000
  Li5  Li1+  0.435  0.735  0.642  1.000
  Li5  Li1+  0.835  0.535  0.242  1.000
  Li5  Li1+  0.435  0.935  0.642  1.000
  Li5  Li1+  0.435  0.135  0.842  1.000
  Li5  Li1+  0.835  0.335  0.042  1.000
  Li5  Li1+  0.435  0.135  0.442  1.000
  Li5  Li1+  0.435  0.535  0.042  1.000
  Li5  Li1+  0.235  0.135  0.442  1.000
  Li5  Li1+  0.635  0.935  0.042  1.000
  Li5  Li1+  0.235  0.535  0.842  1.000
  Li5  Li1+  0.035  0.535  0.242  1.000
  Li5  Li1+  0.835  0.935  0.042  1.000
  Li5  Li1+  0.435  0.935  0.442  1.000
  Li5  Li1+  0.035  0.135  0.042  1.000
  Li5  Li1+  0.035  0.735  0.042  1.000
  Li5  Li1+  0.035  0.135  0.242  1.000
  Li5  Li1+  0.435  0.935  0.842  1.000
  Li5  Li1+  0.835  0.535  0.442  1.000
  Li5  Li1+  0.435  0.335  0.442  1.000
  Li5  Li1+  0.435  0.535  0.842  1.000
  Li5  Li1+  0.035  0.335  0.842  1.000
  Li5  Li1+  0.835  0.135  0.042  1.000
  Li5  Li1+  0.235  0.735  0.642  1.000
  Li5  Li1+  0.235  0.935  0.842  1.000
  Li5  Li1+  0.235  0.335  0.242  1.000
  Li5  Li1+  0.435  0.735  0.842  1.000
  Li5  Li1+  0.835  0.335  0.242  1.000
  Li5  Li1+  0.835  0.935  0.242  1.000
  Li5  Li1+  0.035  0.135  0.842  1.000
  Li5  Li1+  0.235  0.135  0.042  1.000
  Li5  Li1+  0.635  0.535  0.242  1.000
  Li5  Li1+  0.035  0.735  0.442  1.000
  Li5  Li1+  0.235  0.935  0.042  1.000
  Li5  Li1+  0.835  0.535  0.642  1.000
  Li5  Li1+  0.035  0.535  0.042  1.000
  Li5  Li1+  0.635  0.735  0.442  1.000
  Li5  Li1+  0.635  0.335  0.042  1.000
  Li5  Li1+  0.635  0.935  0.242  1.000
  Li5  Li1+  0.035  0.935  0.242  1.000
  Li5  Li1+  0.235  0.135  0.242  1.000
  Li5  Li1+  0.235  0.135  0.642  1.000
  Li5  Li1+  0.635  0.535  0.842  1.000
  Li5  Li1+  0.235  0.535  0.442  1.000
  Li5  Li1+  0.835  0.935  0.442  1.000
  Li5  Li1+  0.235  0.135  0.842  1.000
  Li5  Li1+  0.435  0.735  0.042  1.000
  Li5  Li1+  0.435  0.535  0.242  1.000
  Li5  Li1+  0.835  0.535  0.842  1.000
  Li5  Li1+  0.435  0.335  0.042  1.000
  Li5  Li1+  0.835  0.335  0.442  1.000
  Li5  Li1+  0.835  0.135  0.242  1.000
  Li5  Li1+  0.035  0.335  0.242  1.000
  Li5  Li1+  0.435  0.935  0.042  1.000
  Li5  Li1+  0.235  0.335  0.042  1.000
  Li5  Li1+  0.635  0.135  0.242  1.000
  Li5  Li1+  0.835  0.935  0.642  1.000
  Li5  Li1+  0.235  0.735  0.042  1.000
  Li5  Li1+  0.635  0.135  0.842  1.000
  Li5  Li1+  0.235  0.335  0.642  1.000
  Li5  Li1+  0.035  0.135  0.642  1.000
  Li5  Li1+  0.035  0.535  0.442  1.000
  Li5  Li1+  0.035  0.535  0.642  1.000
  Li5  Li1+  0.635  0.335  0.842  1.000
  Li5  Li1+  0.235  0.535  0.042  1.000
  Li5  Li1+  0.435  0.135  0.642  1.000
  Li5  Li1+  0.435  0.335  0.642  1.000
  Li5  Li1+  0.835  0.735  0.042  1.000
  Li5  Li1+  0.635  0.935  0.442  1.000
  Li5  Li1+  0.835  0.335  0.642  1.000
  Li5  Li1+  0.835  0.135  0.442  1.000
  Li5  Li1+  0.835  0.935  0.842  1.000
  Li5  Li1+  0.035  0.935  0.642  1.000
  Li5  Li1+  0.035  0.935  0.042  1.000
  Li5  Li1+  0.435  0.135  0.242  1.000
  Li5  Li1+  0.635  0.735  0.642  1.000
  Li5  Li1+  0.435  0.935  0.242  1.000
  Li5  Li1+  0.635  0.335  0.442  1.000
  Li5  Li1+  0.235  0.935  0.642  1.000
  Li5  Li1+  0.435  0.735  0.242  1.000
  Li5  Li1+  0.035  0.735  0.242  1.000
  Li5  Li1+  0.035  0.735  0.642  1.000
  Li5  Li1+  0.835  0.735  0.242  1.000
  Li6  Li1+  0.008  0.604  0.264  1.000
  Li6  Li1+  0.608  0.204  0.664  1.000
  Li6  Li1+  0.408  0.804  0.464  1.000
  Li6  Li1+  0.408  0.604  0.464  1.000
  Li6  Li1+  0.008  0.204  0.864  1.000
  Li6  Li1+  0.408  0.204  0.064  1.000
  Li6  Li1+  0.808  0.404  0.264  1.000
  Li6  Li1+  0.208  0.404  0.264  1.000
  Li6  Li1+  0.008  0.204  0.064  1.000
  Li6  Li1+  0.608  0.604  0.664  1.000
  Li6  Li1+  0.008  0.404  0.264  1.000
  Li6  Li1+  0.408  0.004  0.664  1.000
  Li6  Li1+  0.808  0.604  0.664  1.000
  Li6  Li1+  0.608  0.404  0.064  1.000
  Li6  Li1+  0.608  0.604  0.064  1.000
  Li6  Li1+  0.008  0.604  0.064  1.000
  Li6  Li1+  0.608  0.004  0.664  1.000
  Li6  Li1+  0.808  0.204  0.264  1.000
  Li6  Li1+  0.808  0.004  0.264  1.000
  Li6  Li1+  0.608  0.804  0.464  1.000
  Li6  Li1+  0.008  0.004  0.664  1.000
  Li6  Li1+  0.008  0.004  0.464  1.000
  Li6  Li1+  0.608  0.204  0.064  1.000
  Li6  Li1+  0.408  0.004  0.064  1.000
  Li6  Li1+  0.008  0.804  0.464  1.000
  Li6  Li1+  0.808  0.404  0.464  1.000
  Li6  Li1+  0.208  0.004  0.464  1.000
  Li6  Li1+  0.808  0.604  0.864  1.000
  Li6  Li1+  0.008  0.204  0.664  1.000
  Li6  Li1+  0.208  0.004  0.264  1.000
  Li6  Li1+  0.608  0.004  0.864  1.000
  Li6  Li1+  0.408  0.404  0.864  1.000
  Li6  Li1+  0.408  0.604  0.664  1.000
  Li6  Li1+  0.008  0.204  0.464  1.000
  Li6  Li1+  0.208  0.804  0.064  1.000
  Li6  Li1+  0.408  0.204  0.664  1.000
  Li6  Li1+  0.208  0.204  0.664  1.000
  Li6  Li1+  0.608  0.404  0.664  1.000
  Li6  Li1+  0.008  0.604  0.664  1.000
  Li6  Li1+  0.808  0.204  0.464  1.000
  Li6  Li1+  0.408  0.404  0.264  1.000
  Li6  Li1+  0.808  0.004  0.464  1.000
  Li6  Li1+  0.208  0.604  0.264  1.000
  Li6  Li1+  0.808  0.404  0.664  1.000
  Li6  Li1+  0.808  0.804  0.064  1.000
  Li6  Li1+  0.208  0.404  0.864  1.000
  Li6  Li1+  0.008  0.004  0.864  1.000
  Li6  Li1+  0.008  0.204  0.264  1.000
  Li6  Li1+  0.208  0.604  0.864  1.000
  Li6  Li1+  0.608  0.604  0.864  1.000
  Li6  Li1+  0.608  0.204  0.464  1.000
  Li6  Li1+  0.608  0.604  0.264  1.000
  Li6  Li1+  0.608  0.804  0.664  1.000
  Li6  Li1+  0.208  0.404  0.064  1.000
  Li6  Li1+  0.608  0.404  0.264  1.000
  Li6  Li1+  0.208  0.804  0.864  1.000
  Li6  Li1+  0.208  0.004  0.064  1.000
  Li6  Li1+  0.608  0.204  0.864  1.000
  Li6  Li1+  0.408  0.204  0.264  1.000
  Li6  Li1+  0.808  0.404  0.864  1.000
  Li6  Li1+  0.408  0.604  0.064  1.000
  Li6  Li1+  0.808  0.804  0.264  1.000
  Li6  Li1+  0.408  0.604  0.864  1.000
  Li6  Li1+  0.208  0.404  0.464  1.000
  Li6  Li1+  0.008  0.804  0.264  1.000
  Li6  Li1+  0.808  0.204  0.664  1.000
  Li6  Li1+  0.008  0.604  0.864  1.000
  Li6  Li1+  0.008  0.004  0.064  1.000
  Li6  Li1+  0.408  0.004  0.464  1.000
  Li6  Li1+  0.808  0.004  0.664  1.000
  Li6  Li1+  0.208  0.804  0.264  1.000
  Li6  Li1+  0.008  0.804  0.864  1.000
  Li6  Li1+  0.408  0.004  0.864  1.000
  Li6  Li1+  0.408  0.804  0.664  1.000
  Li6  Li1+  0.208  0.204  0.464  1.000
  Li6  Li1+  0.408  0.404  0.464  1.000
  Li6  Li1+  0.008  0.804  0.064  1.000
  Li6  Li1+  0.208  0.004  0.664  1.000
  Li6  Li1+  0.408  0.204  0.864  1.000
  Li6  Li1+  0.208  0.804  0.664  1.000
  Li6  Li1+  0.808  0.804  0.464  1.000
  Li6  Li1+  0.208  0.604  0.664  1.000
  Li6  Li1+  0.808  0.604  0.064  1.000
  Li6  Li1+  0.008  0.404  0.464  1.000
  Li6  Li1+  0.808  0.204  0.864  1.000
  Li6  Li1+  0.608  0.804  0.064  1.000
  Li6  Li1+  0.608  0.804  0.864  1.000
  Li6  Li1+  0.208  0.804  0.464  1.000
  Li6  Li1+  0.608  0.404  0.864  1.000
  Li6  Li1+  0.408  0.804  0.064  1.000
  Li6  Li1+  0.608  0.004  0.264  1.000
  Li6  Li1+  0.808  0.004  0.864  1.000
  Li6  Li1+  0.608  0.604  0.464  1.000
  Li6  Li1+  0.408  0.604  0.264  1.000
  Li6  Li1+  0.808  0.804  0.664  1.000
  Li6  Li1+  0.008  0.004  0.264  1.000
  Li6  Li1+  0.608  0.204  0.264  1.000
  Li6  Li1+  0.408  0.804  0.864  1.000
  Li6  Li1+  0.208  0.204  0.264  1.000
  Li6  Li1+  0.208  0.604  0.064  1.000
  Li6  Li1+  0.008  0.404  0.864  1.000
  Li6  Li1+  0.808  0.604  0.264  1.000
  Li6  Li1+  0.608  0.004  0.464  1.000
  Li6  Li1+  0.408  0.004  0.264  1.000
  Li6  Li1+  0.608  0.004  0.064  1.000
  Li6  Li1+  0.208  0.204  0.064  1.000
  Li6  Li1+  0.208  0.204  0.864  1.000
  Li6  Li1+  0.808  0.404  0.064  1.000
  Li6  Li1+  0.008  0.404  0.064  1.000
  Li6  Li1+  0.808  0.004  0.064  1.000
  Li6  Li1+  0.808  0.804  0.864  1.000
  Li6  Li1+  0.408  0.204  0.464  1.000
  Li6  Li1+  0.808  0.204  0.064  1.000
  Li6  Li1+  0.208  0.604  0.464  1.000
  Li6  Li1+  0.208  0.004  0.864  1.000
  Li6  Li1+  0.408  0.404  0.664  1.000
  Li6  Li1+  0.408  0.804  0.264  1.000
  Li6  Li1+  0.208  0.404  0.664  1.000
  Li6  Li1+  0.008  0.604  0.464  1.000
  Li6  Li1+  0.008  0.804  0.664  1.000
  Li6  Li1+  0.608  0.804  0.264  1.000
  Li6  Li1+  0.808  0.604  0.464  1.000
  Li6  Li1+  0.608  0.404  0.464  1.000
  Li6  Li1+  0.408  0.404  0.064  1.000
  Li6  Li1+  0.008  0.404  0.664  1.000
  Li7  Li1+  0.208  0.396  0.736  1.000
  Li7  Li1+  0.608  0.596  0.936  1.000
  Li7  Li1+  0.808  0.796  0.736  1.000
  Li7  Li1+  0.208  0.996  0.336  1.000
  Li7  Li1+  0.808  0.596  0.536  1.000
  Li7  Li1+  0.008  0.396  0.336  1.000
  Li7  Li1+  0.808  0.396  0.536  1.000
  Li7  Li1+  0.208  0.996  0.536  1.000
  Li7  Li1+  0.008  0.396  0.936  1.000
  Li7  Li1+  0.408  0.596  0.336  1.000
  Li7  Li1+  0.408  0.396  0.336  1.000
  Li7  Li1+  0.208  0.196  0.736  1.000
  Li7  Li1+  0.408  0.596  0.936  1.000
  Li7  Li1+  0.608  0.396  0.336  1.000
  Li7  Li1+  0.408  0.196  0.936  1.000
  Li7  Li1+  0.608  0.996  0.136  1.000
  Li7  Li1+  0.208  0.796  0.936  1.000
  Li7  Li1+  0.008  0.596  0.136  1.000
  Li7  Li1+  0.608  0.796  0.536  1.000
  Li7  Li1+  0.808  0.796  0.936  1.000
  Li7  Li1+  0.408  0.996  0.536  1.000
  Li7  Li1+  0.608  0.596  0.536  1.000
  Li7  Li1+  0.808  0.596  0.736  1.000
  Li7  Li1+  0.808  0.196  0.736  1.000
  Li7  Li1+  0.008  0.996  0.736  1.000
  Li7  Li1+  0.008  0.596  0.936  1.000
  Li7  Li1+  0.008  0.796  0.136  1.000
  Li7  Li1+  0.408  0.796  0.736  1.000
  Li7  Li1+  0.608  0.396  0.736  1.000
  Li7  Li1+  0.808  0.396  0.736  1.000
  Li7  Li1+  0.608  0.996  0.936  1.000
  Li7  Li1+  0.008  0.596  0.336  1.000
  Li7  Li1+  0.008  0.796  0.736  1.000
  Li7  Li1+  0.208  0.396  0.536  1.000
  Li7  Li1+  0.008  0.996  0.936  1.000
  Li7  Li1+  0.608  0.596  0.136  1.000
  Li7  Li1+  0.208  0.596  0.136  1.000
  Li7  Li1+  0.408  0.196  0.336  1.000
  Li7  Li1+  0.408  0.396  0.936  1.000
  Li7  Li1+  0.208  0.796  0.536  1.000
  Li7  Li1+  0.808  0.996  0.136  1.000
  Li7  Li1+  0.808  0.596  0.936  1.000
  Li7  Li1+  0.208  0.196  0.136  1.000
  Li7  Li1+  0.608  0.196  0.336  1.000
  Li7  Li1+  0.408  0.796  0.136  1.000
  Li7  Li1+  0.608  0.396  0.136  1.000
  Li7  Li1+  0.808  0.196  0.936  1.000
  Li7  Li1+  0.008  0.996  0.536  1.000
  Li7  Li1+  0.008  0.196  0.136  1.000
  Li7  Li1+  0.608  0.996  0.336  1.000
  Li7  Li1+  0.408  0.996  0.936  1.000
  Li7  Li1+  0.208  0.596  0.536  1.000
  Li7  Li1+  0.208  0.596  0.936  1.000
  Li7  Li1+  0.208  0.196  0.936  1.000
  Li7  Li1+  0.208  0.396  0.336  1.000
  Li7  Li1+  0.408  0.596  0.536  1.000
  Li7  Li1+  0.808  0.396  0.936  1.000
  Li7  Li1+  0.608  0.796  0.136  1.000
  Li7  Li1+  0.008  0.796  0.936  1.000
  Li7  Li1+  0.808  0.996  0.336  1.000
  Li7  Li1+  0.608  0.196  0.536  1.000
  Li7  Li1+  0.008  0.996  0.336  1.000
  Li7  Li1+  0.408  0.796  0.936  1.000
  Li7  Li1+  0.808  0.196  0.136  1.000
  Li7  Li1+  0.608  0.796  0.736  1.000
  Li7  Li1+  0.408  0.996  0.336  1.000
  Li7  Li1+  0.808  0.796  0.136  1.000
  Li7  Li1+  0.008  0.396  0.136  1.000
  Li7  Li1+  0.408  0.396  0.536  1.000
  Li7  Li1+  0.008  0.996  0.136  1.000
  Li7  Li1+  0.208  0.396  0.136  1.000
  Li7  Li1+  0.408  0.196  0.736  1.000
  Li7  Li1+  0.008  0.196  0.536  1.000
  Li7  Li1+  0.408  0.396  0.136  1.000
  Li7  Li1+  0.808  0.396  0.136  1.000
  Li7  Li1+  0.008  0.596  0.736  1.000
  Li7  Li1+  0.608  0.196  0.936  1.000
  Li7  Li1+  0.608  0.196  0.736  1.000
  Li7  Li1+  0.808  0.996  0.536  1.000
  Li7  Li1+  0.808  0.596  0.136  1.000
  Li7  Li1+  0.008  0.796  0.536  1.000
  Li7  Li1+  0.408  0.196  0.136  1.000
  Li7  Li1+  0.608  0.596  0.736  1.000
  Li7  Li1+  0.608  0.996  0.536  1.000
  Li7  Li1+  0.608  0.396  0.536  1.000
  Li7  Li1+  0.408  0.796  0.336  1.000
  Li7  Li1+  0.808  0.796  0.336  1.000
  Li7  Li1+  0.208  0.396  0.936  1.000
  Li7  Li1+  0.408  0.596  0.136  1.000
  Li7  Li1+  0.008  0.796  0.336  1.000
  Li7  Li1+  0.608  0.596  0.336  1.000
  Li7  Li1+  0.808  0.196  0.336  1.000
  Li7  Li1+  0.208  0.796  0.336  1.000
  Li7  Li1+  0.208  0.196  0.536  1.000
  Li7  Li1+  0.408  0.996  0.136  1.000
  Li7  Li1+  0.808  0.996  0.736  1.000
  Li7  Li1+  0.408  0.596  0.736  1.000
  Li7  Li1+  0.208  0.996  0.936  1.000
  Li7  Li1+  0.608  0.396  0.936  1.000
  Li7  Li1+  0.608  0.796  0.336  1.000
  Li7  Li1+  0.208  0.996  0.136  1.000
  Li7  Li1+  0.608  0.796  0.936  1.000
  Li7  Li1+  0.008  0.596  0.536  1.000
  Li7  Li1+  0.408  0.996  0.736  1.000
  Li7  Li1+  0.208  0.796  0.136  1.000
  Li7  Li1+  0.608  0.196  0.136  1.000
  Li7  Li1+  0.808  0.796  0.536  1.000
  Li7  Li1+  0.808  0.596  0.336  1.000
  Li7  Li1+  0.008  0.196  0.736  1.000
  Li7  Li1+  0.808  0.396  0.336  1.000
  Li7  Li1+  0.008  0.396  0.736  1.000
  Li7  Li1+  0.208  0.796  0.736  1.000
  Li7  Li1+  0.808  0.996  0.936  1.000
  Li7  Li1+  0.208  0.196  0.336  1.000
  Li7  Li1+  0.008  0.196  0.936  1.000
  Li7  Li1+  0.008  0.396  0.536  1.000
  Li7  Li1+  0.608  0.996  0.736  1.000
  Li7  Li1+  0.208  0.596  0.336  1.000
  Li7  Li1+  0.408  0.196  0.536  1.000
  Li7  Li1+  0.208  0.596  0.736  1.000
  Li7  Li1+  0.408  0.396  0.736  1.000
  Li7  Li1+  0.808  0.196  0.536  1.000
  Li7  Li1+  0.408  0.796  0.536  1.000
  Li7  Li1+  0.208  0.996  0.736  1.000
  Li7  Li1+  0.008  0.196  0.336  1.000
  Li8  Li1+  0.592  0.696  0.164  1.000
  Li8  Li1+  0.592  0.696  0.764  1.000
  Li8  Li1+  0.992  0.096  0.364  1.000
  Li8  Li1+  0.992  0.296  0.164  1.000
  Li8  Li1+  0.992  0.496  0.964  1.000
  Li8  Li1+  0.792  0.696  0.164  1.000
  Li8  Li1+  0.792  0.296  0.764  1.000
  Li8  Li1+  0.192  0.496  0.564  1.000
  Li8  Li1+  0.592  0.496  0.164  1.000
  Li8  Li1+  0.792  0.896  0.164  1.000
  Li8  Li1+  0.792  0.896  0.764  1.000
  Li8  Li1+  0.392  0.296  0.764  1.000
  Li8  Li1+  0.392  0.696  0.564  1.000
  Li8  Li1+  0.392  0.096  0.164  1.000
  Li8  Li1+  0.592  0.296  0.364  1.000
  Li8  Li1+  0.392  0.496  0.964  1.000
  Li8  Li1+  0.392  0.896  0.164  1.000
  Li8  Li1+  0.792  0.096  0.164  1.000
  Li8  Li1+  0.592  0.296  0.764  1.000
  Li8  Li1+  0.992  0.896  0.164  1.000
  Li8  Li1+  0.192  0.296  0.764  1.000
  Li8  Li1+  0.792  0.096  0.964  1.000
  Li8  Li1+  0.392  0.296  0.364  1.000
  Li8  Li1+  0.392  0.296  0.564  1.000
  Li8  Li1+  0.192  0.696  0.364  1.000
  Li8  Li1+  0.392  0.096  0.364  1.000
  Li8  Li1+  0.992  0.096  0.564  1.000
  Li8  Li1+  0.992  0.496  0.164  1.000
  Li8  Li1+  0.592  0.096  0.764  1.000
  Li8  Li1+  0.792  0.296  0.564  1.000
  Li8  Li1+  0.992  0.696  0.164  1.000
  Li8  Li1+  0.792  0.096  0.564  1.000
  Li8  Li1+  0.792  0.696  0.764  1.000
  Li8  Li1+  0.992  0.296  0.364  1.000
  Li8  Li1+  0.192  0.096  0.764  1.000
  Li8  Li1+  0.792  0.296  0.364  1.000
  Li8  Li1+  0.592  0.496  0.764  1.000
  Li8  Li1+  0.392  0.696  0.764  1.000
  Li8  Li1+  0.592  0.696  0.964  1.000
  Li8  Li1+  0.792  0.496  0.164  1.000
  Li8  Li1+  0.192  0.896  0.964  1.000
  Li8  Li1+  0.992  0.896  0.364  1.000
  Li8  Li1+  0.392  0.496  0.364  1.000
  Li8  Li1+  0.192  0.696  0.164  1.000
  Li8  Li1+  0.592  0.696  0.364  1.000
  Li8  Li1+  0.792  0.896  0.964  1.000
  Li8  Li1+  0.192  0.296  0.964  1.000
  Li8  Li1+  0.792  0.496  0.564  1.000
  Li8  Li1+  0.192  0.696  0.964  1.000
  Li8  Li1+  0.792  0.896  0.364  1.000
  Li8  Li1+  0.192  0.296  0.164  1.000
  Li8  Li1+  0.192  0.096  0.564  1.000
  Li8  Li1+  0.992  0.696  0.364  1.000
  Li8  Li1+  0.992  0.496  0.364  1.000
  Li8  Li1+  0.792  0.696  0.364  1.000
  Li8  Li1+  0.392  0.096  0.964  1.000
  Li8  Li1+  0.792  0.296  0.164  1.000
  Li8  Li1+  0.592  0.496  0.364  1.000
  Li8  Li1+  0.592  0.096  0.564  1.000
  Li8  Li1+  0.792  0.496  0.964  1.000
  Li8  Li1+  0.992  0.296  0.564  1.000
  Li8  Li1+  0.592  0.296  0.164  1.000
  Li8  Li1+  0.992  0.096  0.764  1.000
  Li8  Li1+  0.992  0.896  0.564  1.000
  Li8  Li1+  0.392  0.696  0.964  1.000
  Li8  Li1+  0.392  0.896  0.564  1.000
  Li8  Li1+  0.392  0.496  0.764  1.000
  Li8  Li1+  0.592  0.896  0.564  1.000
  Li8  Li1+  0.192  0.096  0.164  1.000
  Li8  Li1+  0.792  0.296  0.964  1.000
  Li8  Li1+  0.592  0.896  0.764  1.000
  Li8  Li1+  0.592  0.296  0.564  1.000
  Li8  Li1+  0.192  0.496  0.764  1.000
  Li8  Li1+  0.592  0.296  0.964  1.000
  Li8  Li1+  0.592  0.896  0.164  1.000
  Li8  Li1+  0.592  0.096  0.364  1.000
  Li8  Li1+  0.392  0.496  0.164  1.000
  Li8  Li1+  0.992  0.696  0.564  1.000
  Li8  Li1+  0.192  0.096  0.364  1.000
  Li8  Li1+  0.392  0.696  0.164  1.000
  Li8  Li1+  0.992  0.496  0.564  1.000
  Li8  Li1+  0.992  0.096  0.164  1.000
  Li8  Li1+  0.992  0.896  0.764  1.000
  Li8  Li1+  0.192  0.296  0.564  1.000
  Li8  Li1+  0.792  0.096  0.364  1.000
  Li8  Li1+  0.592  0.496  0.964  1.000
  Li8  Li1+  0.792  0.696  0.964  1.000
  Li8  Li1+  0.592  0.696  0.564  1.000
  Li8  Li1+  0.192  0.296  0.364  1.000
  Li8  Li1+  0.192  0.896  0.164  1.000
  Li8  Li1+  0.192  0.696  0.564  1.000
  Li8  Li1+  0.192  0.696  0.764  1.000
  Li8  Li1+  0.792  0.896  0.564  1.000
  Li8  Li1+  0.992  0.296  0.764  1.000
  Li8  Li1+  0.992  0.096  0.964  1.000
  Li8  Li1+  0.392  0.896  0.764  1.000
  Li8  Li1+  0.392  0.896  0.964  1.000
  Li8  Li1+  0.592  0.096  0.164  1.000
  Li8  Li1+  0.192  0.496  0.964  1.000
  Li8  Li1+  0.592  0.896  0.964  1.000
  Li8  Li1+  0.992  0.696  0.764  1.000
  Li8  Li1+  0.192  0.896  0.764  1.000
  Li8  Li1+  0.192  0.496  0.364  1.000
  Li8  Li1+  0.192  0.896  0.364  1.000
  Li8  Li1+  0.992  0.896  0.964  1.000
  Li8  Li1+  0.792  0.496  0.364  1.000
  Li8  Li1+  0.992  0.496  0.764  1.000
  Li8  Li1+  0.392  0.696  0.364  1.000
  Li8  Li1+  0.392  0.296  0.964  1.000
  Li8  Li1+  0.792  0.696  0.564  1.000
  Li8  Li1+  0.192  0.896  0.564  1.000
  Li8  Li1+  0.592  0.896  0.364  1.000
  Li8  Li1+  0.592  0.496  0.564  1.000
  Li8  Li1+  0.792  0.096  0.764  1.000
  Li8  Li1+  0.192  0.496  0.164  1.000
  Li8  Li1+  0.392  0.096  0.764  1.000
  Li8  Li1+  0.592  0.096  0.964  1.000
  Li8  Li1+  0.392  0.296  0.164  1.000
  Li8  Li1+  0.392  0.496  0.564  1.000
  Li8  Li1+  0.392  0.896  0.364  1.000
  Li8  Li1+  0.792  0.496  0.764  1.000
  Li8  Li1+  0.192  0.096  0.964  1.000
  Li8  Li1+  0.392  0.096  0.564  1.000
  Li8  Li1+  0.992  0.696  0.964  1.000
  Li8  Li1+  0.992  0.296  0.964  1.000
  Li9  Li1+  0.592  0.504  0.636  1.000
  Li9  Li1+  0.192  0.104  0.636  1.000
  Li9  Li1+  0.592  0.104  0.836  1.000
  Li9  Li1+  0.792  0.304  0.636  1.000
  Li9  Li1+  0.192  0.304  0.836  1.000
  Li9  Li1+  0.392  0.504  0.836  1.000
  Li9  Li1+  0.992  0.704  0.036  1.000
  Li9  Li1+  0.592  0.504  0.236  1.000
  Li9  Li1+  0.192  0.504  0.836  1.000
  Li9  Li1+  0.992  0.904  0.036  1.000
  Li9  Li1+  0.392  0.504  0.236  1.000
  Li9  Li1+  0.192  0.704  0.636  1.000
  Li9  Li1+  0.792  0.304  0.236  1.000
  Li9  Li1+  0.992  0.304  0.436  1.000
  Li9  Li1+  0.592  0.304  0.836  1.000
  Li9  Li1+  0.392  0.104  0.236  1.000
  Li9  Li1+  0.792  0.904  0.036  1.000
  Li9  Li1+  0.992  0.504  0.236  1.000
  Li9  Li1+  0.392  0.904  0.836  1.000
  Li9  Li1+  0.792  0.304  0.436  1.000
  Li9  Li1+  0.192  0.104  0.236  1.000
  Li9  Li1+  0.592  0.104  0.636  1.000
  Li9  Li1+  0.592  0.704  0.236  1.000
  Li9  Li1+  0.792  0.504  0.836  1.000
  Li9  Li1+  0.392  0.104  0.436  1.000
  Li9  Li1+  0.792  0.104  0.636  1.000
  Li9  Li1+  0.792  0.704  0.636  1.000
  Li9  Li1+  0.992  0.104  0.836  1.000
  Li9  Li1+  0.392  0.104  0.836  1.000
  Li9  Li1+  0.592  0.704  0.836  1.000
  Li9  Li1+  0.992  0.704  0.236  1.000
  Li9  Li1+  0.792  0.704  0.236  1.000
  Li9  Li1+  0.792  0.904  0.636  1.000
  Li9  Li1+  0.992  0.904  0.236  1.000
  Li9  Li1+  0.392  0.504  0.036  1.000
  Li9  Li1+  0.792  0.504  0.236  1.000
  Li9  Li1+  0.392  0.704  0.436  1.000
  Li9  Li1+  0.392  0.304  0.236  1.000
  Li9  Li1+  0.192  0.104  0.836  1.000
  Li9  Li1+  0.192  0.904  0.836  1.000
  Li9  Li1+  0.992  0.104  0.236  1.000
  Li9  Li1+  0.592  0.304  0.236  1.000
  Li9  Li1+  0.192  0.304  0.236  1.000
  Li9  Li1+  0.992  0.304  0.636  1.000
  Li9  Li1+  0.992  0.504  0.436  1.000
  Li9  Li1+  0.192  0.504  0.036  1.000
  Li9  Li1+  0.792  0.104  0.436  1.000
  Li9  Li1+  0.392  0.304  0.836  1.000
  Li9  Li1+  0.192  0.904  0.036  1.000
  Li9  Li1+  0.592  0.504  0.836  1.000
  Li9  Li1+  0.392  0.504  0.636  1.000
  Li9  Li1+  0.592  0.104  0.436  1.000
  Li9  Li1+  0.792  0.104  0.236  1.000
  Li9  Li1+  0.592  0.104  0.036  1.000
  Li9  Li1+  0.592  0.104  0.236  1.000
  Li9  Li1+  0.392  0.904  0.036  1.000
  Li9  Li1+  0.992  0.704  0.436  1.000
  Li9  Li1+  0.992  0.904  0.436  1.000
  Li9  Li1+  0.392  0.304  0.636  1.000
  Li9  Li1+  0.192  0.504  0.236  1.000
  Li9  Li1+  0.392  0.304  0.436  1.000
  Li9  Li1+  0.192  0.104  0.036  1.000
  Li9  Li1+  0.992  0.304  0.036  1.000
  Li9  Li1+  0.392  0.104  0.636  1.000
  Li9  Li1+  0.592  0.504  0.436  1.000
  Li9  Li1+  0.192  0.304  0.036  1.000
  Li9  Li1+  0.792  0.104  0.036  1.000
  Li9  Li1+  0.592  0.704  0.436  1.000
  Li9  Li1+  0.592  0.304  0.636  1.000
  Li9  Li1+  0.592  0.504  0.036  1.000
  Li9  Li1+  0.992  0.504  0.636  1.000
  Li9  Li1+  0.592  0.904  0.036  1.000
  Li9  Li1+  0.392  0.704  0.236  1.000
  Li9  Li1+  0.792  0.904  0.236  1.000
  Li9  Li1+  0.192  0.304  0.636  1.000
  Li9  Li1+  0.992  0.304  0.836  1.000
  Li9  Li1+  0.392  0.704  0.036  1.000
  Li9  Li1+  0.792  0.504  0.636  1.000
  Li9  Li1+  0.392  0.904  0.436  1.000
  Li9  Li1+  0.992  0.904  0.636  1.000
  Li9  Li1+  0.192  0.904  0.236  1.000
  Li9  Li1+  0.992  0.104  0.436  1.000
  Li9  Li1+  0.792  0.104  0.836  1.000
  Li9  Li1+  0.992  0.704  0.636  1.000
  Li9  Li1+  0.192  0.704  0.036  1.000
  Li9  Li1+  0.792  0.904  0.836  1.000
  Li9  Li1+  0.792  0.504  0.036  1.000
  Li9  Li1+  0.192  0.304  0.436  1.000
  Li9  Li1+  0.192  0.704  0.436  1.000
  Li9  Li1+  0.392  0.504  0.436  1.000
  Li9  Li1+  0.192  0.504  0.636  1.000
  Li9  Li1+  0.392  0.704  0.836  1.000
  Li9  Li1+  0.592  0.304  0.036  1.000
  Li9  Li1+  0.792  0.704  0.836  1.000
  Li9  Li1+  0.592  0.704  0.036  1.000
  Li9  Li1+  0.392  0.904  0.236  1.000
  Li9  Li1+  0.792  0.704  0.036  1.000
  Li9  Li1+  0.792  0.704  0.436  1.000
  Li9  Li1+  0.992  0.504  0.836  1.000
  Li9  Li1+  0.192  0.104  0.436  1.000
  Li9  Li1+  0.592  0.904  0.636  1.000
  Li9  Li1+  0.192  0.904  0.436  1.000
  Li9  Li1+  0.392  0.704  0.636  1.000
  Li9  Li1+  0.992  0.904  0.836  1.000
  Li9  Li1+  0.192  0.704  0.236  1.000
  Li9  Li1+  0.992  0.304  0.236  1.000
  Li9  Li1+  0.192  0.904  0.636  1.000
  Li9  Li1+  0.792  0.304  0.836  1.000
  Li9  Li1+  0.592  0.904  0.836  1.000
  Li9  Li1+  0.992  0.704  0.836  1.000
  Li9  Li1+  0.592  0.904  0.436  1.000
  Li9  Li1+  0.392  0.104  0.036  1.000
  Li9  Li1+  0.992  0.504  0.036  1.000
  Li9  Li1+  0.592  0.904  0.236  1.000
  Li9  Li1+  0.792  0.304  0.036  1.000
  Li9  Li1+  0.592  0.704  0.636  1.000
  Li9  Li1+  0.192  0.704  0.836  1.000
  Li9  Li1+  0.192  0.504  0.436  1.000
  Li9  Li1+  0.792  0.904  0.436  1.000
  Li9  Li1+  0.592  0.304  0.436  1.000
  Li9  Li1+  0.392  0.304  0.036  1.000
  Li9  Li1+  0.392  0.904  0.636  1.000
  Li9  Li1+  0.992  0.104  0.636  1.000
  Li9  Li1+  0.792  0.504  0.436  1.000
  Li9  Li1+  0.992  0.104  0.036  1.000
  Li10  Li1+  0.365  0.965  0.742  1.000
  Li10  Li1+  0.565  0.365  0.942  1.000
  Li10  Li1+  0.165  0.365  0.342  1.000
  Li10  Li1+  0.965  0.165  0.942  1.000
  Li10  Li1+  0.965  0.765  0.142  1.000
  Li10  Li1+  0.365  0.165  0.742  1.000
  Li10  Li1+  0.365  0.765  0.342  1.000
  Li10  Li1+  0.565  0.565  0.742  1.000
  Li10  Li1+  0.965  0.565  0.342  1.000
  Li10  Li1+  0.165  0.565  0.342  1.000
  Li10  Li1+  0.965  0.165  0.342  1.000
  Li10  Li1+  0.565  0.965  0.942  1.000
  Li10  Li1+  0.565  0.765  0.742  1.000
  Li10  Li1+  0.165  0.765  0.742  1.000
  Li10  Li1+  0.165  0.365  0.542  1.000
  Li10  Li1+  0.565  0.565  0.342  1.000
  Li10  Li1+  0.765  0.165  0.742  1.000
  Li10  Li1+  0.165  0.765  0.542  1.000
  Li10  Li1+  0.565  0.165  0.742  1.000
  Li10  Li1+  0.965  0.965  0.142  1.000
  Li10  Li1+  0.165  0.565  0.742  1.000
  Li10  Li1+  0.365  0.565  0.542  1.000
  Li10  Li1+  0.365  0.165  0.142  1.000
  Li10  Li1+  0.765  0.965  0.342  1.000
  Li10  Li1+  0.765  0.565  0.742  1.000
  Li10  Li1+  0.765  0.565  0.142  1.000
  Li10  Li1+  0.165  0.965  0.142  1.000
  Li10  Li1+  0.365  0.965  0.342  1.000
  Li10  Li1+  0.565  0.165  0.542  1.000
  Li10  Li1+  0.965  0.365  0.742  1.000
  Li10  Li1+  0.165  0.365  0.142  1.000
  Li10  Li1+  0.565  0.365  0.342  1.000
  Li10  Li1+  0.965  0.765  0.342  1.000
  Li10  Li1+  0.165  0.365  0.742  1.000
  Li10  Li1+  0.565  0.965  0.742  1.000
  Li10  Li1+  0.165  0.165  0.742  1.000
  Li10  Li1+  0.965  0.565  0.542  1.000
  Li10  Li1+  0.165  0.765  0.342  1.000
  Li10  Li1+  0.165  0.565  0.542  1.000
  Li10  Li1+  0.765  0.765  0.942  1.000
  Li10  Li1+  0.365  0.365  0.142  1.000
  Li10  Li1+  0.565  0.765  0.342  1.000
  Li10  Li1+  0.765  0.965  0.942  1.000
  Li10  Li1+  0.565  0.165  0.342  1.000
  Li10  Li1+  0.765  0.765  0.142  1.000
  Li10  Li1+  0.965  0.965  0.342  1.000
  Li10  Li1+  0.965  0.365  0.142  1.000
  Li10  Li1+  0.365  0.565  0.342  1.000
  Li10  Li1+  0.365  0.965  0.942  1.000
  Li10  Li1+  0.765  0.765  0.542  1.000
  Li10  Li1+  0.365  0.965  0.142  1.000
  Li10  Li1+  0.965  0.165  0.542  1.000
  Li10  Li1+  0.165  0.565  0.942  1.000
  Li10  Li1+  0.565  0.165  0.142  1.000
  Li10  Li1+  0.165  0.965  0.742  1.000
  Li10  Li1+  0.365  0.565  0.942  1.000
  Li10  Li1+  0.365  0.765  0.142  1.000
  Li10  Li1+  0.765  0.165  0.142  1.000
  Li10  Li1+  0.565  0.565  0.942  1.000
  Li10  Li1+  0.565  0.765  0.942  1.000
  Li10  Li1+  0.765  0.165  0.542  1.000
  Li10  Li1+  0.965  0.765  0.542  1.000
  Li10  Li1+  0.565  0.365  0.742  1.000
  Li10  Li1+  0.165  0.165  0.142  1.000
  Li10  Li1+  0.365  0.765  0.742  1.000
  Li10  Li1+  0.365  0.365  0.342  1.000
  Li10  Li1+  0.565  0.365  0.142  1.000
  Li10  Li1+  0.965  0.565  0.742  1.000
  Li10  Li1+  0.965  0.365  0.942  1.000
  Li10  Li1+  0.365  0.565  0.142  1.000
  Li10  Li1+  0.965  0.965  0.542  1.000
  Li10  Li1+  0.165  0.965  0.342  1.000
  Li10  Li1+  0.765  0.965  0.542  1.000
  Li10  Li1+  0.165  0.165  0.542  1.000
  Li10  Li1+  0.765  0.365  0.942  1.000
  Li10  Li1+  0.565  0.565  0.142  1.000
  Li10  Li1+  0.765  0.565  0.542  1.000
  Li10  Li1+  0.565  0.565  0.542  1.000
  Li10  Li1+  0.765  0.165  0.942  1.000
  Li10  Li1+  0.165  0.765  0.942  1.000
  Li10  Li1+  0.165  0.565  0.142  1.000
  Li10  Li1+  0.765  0.165  0.342  1.000
  Li10  Li1+  0.965  0.365  0.342  1.000
  Li10  Li1+  0.565  0.965  0.342  1.000
  Li10  Li1+  0.365  0.765  0.942  1.000
  Li10  Li1+  0.165  0.165  0.342  1.000
  Li10  Li1+  0.165  0.965  0.542  1.000
  Li10  Li1+  0.365  0.965  0.542  1.000
  Li10  Li1+  0.565  0.765  0.542  1.000
  Li10  Li1+  0.965  0.765  0.742  1.000
  Li10  Li1+  0.365  0.365  0.542  1.000
  Li10  Li1+  0.965  0.165  0.142  1.000
  Li10  Li1+  0.965  0.165  0.742  1.000
  Li10  Li1+  0.765  0.365  0.742  1.000
  Li10  Li1+  0.365  0.365  0.942  1.000
  Li10  Li1+  0.365  0.165  0.342  1.000
  Li10  Li1+  0.965  0.965  0.742  1.000
  Li10  Li1+  0.765  0.365  0.142  1.000
  Li10  Li1+  0.765  0.565  0.942  1.000
  Li10  Li1+  0.965  0.565  0.142  1.000
  Li10  Li1+  0.965  0.565  0.942  1.000
  Li10  Li1+  0.765  0.965  0.142  1.000
  Li10  Li1+  0.565  0.965  0.542  1.000
  Li10  Li1+  0.765  0.365  0.542  1.000
  Li10  Li1+  0.565  0.965  0.142  1.000
  Li10  Li1+  0.365  0.365  0.742  1.000
  Li10  Li1+  0.365  0.165  0.942  1.000
  Li10  Li1+  0.365  0.565  0.742  1.000
  Li10  Li1+  0.165  0.365  0.942  1.000
  Li10  Li1+  0.765  0.765  0.742  1.000
  Li10  Li1+  0.765  0.765  0.342  1.000
  Li10  Li1+  0.365  0.765  0.542  1.000
  Li10  Li1+  0.565  0.165  0.942  1.000
  Li10  Li1+  0.165  0.965  0.942  1.000
  Li10  Li1+  0.565  0.365  0.542  1.000
  Li10  Li1+  0.765  0.365  0.342  1.000
  Li10  Li1+  0.565  0.765  0.142  1.000
  Li10  Li1+  0.965  0.765  0.942  1.000
  Li10  Li1+  0.965  0.365  0.542  1.000
  Li10  Li1+  0.165  0.165  0.942  1.000
  Li10  Li1+  0.765  0.565  0.342  1.000
  Li10  Li1+  0.765  0.965  0.742  1.000
  Li10  Li1+  0.965  0.965  0.942  1.000
  Li10  Li1+  0.165  0.765  0.142  1.000
  Li10  Li1+  0.365  0.165  0.542  1.000
  Li11  Li1+  0.765  0.435  0.058  1.000
  Li11  Li1+  0.565  0.635  0.658  1.000
  Li11  Li1+  0.765  0.835  0.058  1.000
  Li11  Li1+  0.165  0.035  0.658  1.000
  Li11  Li1+  0.765  0.635  0.658  1.000
  Li11  Li1+  0.165  0.035  0.458  1.000
  Li11  Li1+  0.965  0.435  0.458  1.000
  Li11  Li1+  0.165  0.235  0.458  1.000
  Li11  Li1+  0.765  0.035  0.058  1.000
  Li11  Li1+  0.965  0.835  0.058  1.000
  Li11  Li1+  0.365  0.035  0.258  1.000
  Li11  Li1+  0.765  0.235  0.058  1.000
  Li11  Li1+  0.365  0.235  0.458  1.000
  Li11  Li1+  0.965  0.635  0.258  1.000
  Li11  Li1+  0.765  0.435  0.658  1.000
  Li11  Li1+  0.965  0.035  0.058  1.000
  Li11  Li1+  0.365  0.435  0.258  1.000
  Li11  Li1+  0.565  0.035  0.858  1.000
  Li11  Li1+  0.365  0.835  0.858  1.000
  Li11  Li1+  0.565  0.435  0.058  1.000
  Li11  Li1+  0.365  0.635  0.458  1.000
  Li11  Li1+  0.565  0.635  0.258  1.000
  Li11  Li1+  0.765  0.035  0.658  1.000
  Li11  Li1+  0.165  0.635  0.458  1.000
  Li11  Li1+  0.965  0.235  0.858  1.000
  Li11  Li1+  0.165  0.635  0.858  1.000
  Li11  Li1+  0.365  0.435  0.058  1.000
  Li11  Li1+  0.165  0.435  0.658  1.000
  Li11  Li1+  0.165  0.435  0.458  1.000
  Li11  Li1+  0.765  0.235  0.858  1.000
  Li11  Li1+  0.565  0.435  0.858  1.000
  Li11  Li1+  0.965  0.035  0.658  1.000
  Li11  Li1+  0.965  0.235  0.258  1.000
  Li11  Li1+  0.365  0.035  0.058  1.000
  Li11  Li1+  0.565  0.435  0.458  1.000
  Li11  Li1+  0.365  0.835  0.458  1.000
  Li11  Li1+  0.365  0.235  0.658  1.000
  Li11  Li1+  0.965  0.835  0.258  1.000
  Li11  Li1+  0.165  0.635  0.258  1.000
  Li11  Li1+  0.965  0.435  0.658  1.000
  Li11  Li1+  0.165  0.235  0.058  1.000
  Li11  Li1+  0.165  0.835  0.258  1.000
  Li11  Li1+  0.565  0.035  0.658  1.000
  Li11  Li1+  0.965  0.635  0.458  1.000
  Li11  Li1+  0.565  0.035  0.058  1.000
  Li11  Li1+  0.365  0.235  0.858  1.000
  Li11  Li1+  0.765  0.835  0.658  1.000
  Li11  Li1+  0.565  0.235  0.458  1.000
  Li11  Li1+  0.365  0.435  0.858  1.000
  Li11  Li1+  0.565  0.035  0.258  1.000
  Li11  Li1+  0.565  0.035  0.458  1.000
  Li11  Li1+  0.165  0.035  0.058  1.000
  Li11  Li1+  0.565  0.635  0.858  1.000
  Li11  Li1+  0.765  0.635  0.058  1.000
  Li11  Li1+  0.765  0.235  0.658  1.000
  Li11  Li1+  0.765  0.235  0.258  1.000
  Li11  Li1+  0.765  0.235  0.458  1.000
  Li11  Li1+  0.165  0.235  0.658  1.000
  Li11  Li1+  0.765  0.835  0.258  1.000
  Li11  Li1+  0.165  0.435  0.858  1.000
  Li11  Li1+  0.965  0.435  0.058  1.000
  Li11  Li1+  0.165  0.635  0.658  1.000
  Li11  Li1+  0.365  0.235  0.058  1.000
  Li11  Li1+  0.965  0.035  0.258  1.000
  Li11  Li1+  0.765  0.635  0.458  1.000
  Li11  Li1+  0.965  0.835  0.458  1.000
  Li11  Li1+  0.765  0.635  0.858  1.000
  Li11  Li1+  0.765  0.435  0.458  1.000
  Li11  Li1+  0.565  0.235  0.858  1.000
  Li11  Li1+  0.965  0.235  0.458  1.000
  Li11  Li1+  0.365  0.635  0.658  1.000
  Li11  Li1+  0.965  0.035  0.858  1.000
  Li11  Li1+  0.565  0.635  0.458  1.000
  Li11  Li1+  0.965  0.435  0.858  1.000
  Li11  Li1+  0.965  0.635  0.658  1.000
  Li11  Li1+  0.565  0.835  0.858  1.000
  Li11  Li1+  0.765  0.035  0.458  1.000
  Li11  Li1+  0.165  0.835  0.458  1.000
  Li11  Li1+  0.365  0.835  0.058  1.000
  Li11  Li1+  0.765  0.035  0.258  1.000
  Li11  Li1+  0.565  0.235  0.258  1.000
  Li11  Li1+  0.165  0.835  0.858  1.000
  Li11  Li1+  0.165  0.635  0.058  1.000
  Li11  Li1+  0.365  0.835  0.258  1.000
  Li11  Li1+  0.565  0.835  0.458  1.000
  Li11  Li1+  0.165  0.235  0.258  1.000
  Li11  Li1+  0.165  0.035  0.258  1.000
  Li11  Li1+  0.365  0.035  0.458  1.000
  Li11  Li1+  0.565  0.835  0.258  1.000
  Li11  Li1+  0.565  0.435  0.258  1.000
  Li11  Li1+  0.365  0.435  0.658  1.000
  Li11  Li1+  0.565  0.635  0.058  1.000
  Li11  Li1+  0.765  0.835  0.858  1.000
  Li11  Li1+  0.965  0.835  0.658  1.000
  Li11  Li1+  0.765  0.435  0.258  1.000
  Li11  Li1+  0.565  0.435  0.658  1.000
  Li11  Li1+  0.765  0.435  0.858  1.000
  Li11  Li1+  0.965  0.435  0.258  1.000
  Li11  Li1+  0.365  0.835  0.658  1.000
  Li11  Li1+  0.165  0.435  0.258  1.000
  Li11  Li1+  0.365  0.635  0.858  1.000
  Li11  Li1+  0.565  0.835  0.058  1.000
  Li11  Li1+  0.765  0.035  0.858  1.000
  Li11  Li1+  0.365  0.635  0.258  1.000
  Li11  Li1+  0.165  0.835  0.658  1.000
  Li11  Li1+  0.965  0.635  0.858  1.000
  Li11  Li1+  0.365  0.235  0.258  1.000
  Li11  Li1+  0.965  0.635  0.058  1.000
  Li11  Li1+  0.365  0.035  0.858  1.000
  Li11  Li1+  0.565  0.235  0.058  1.000
  Li11  Li1+  0.965  0.035  0.458  1.000
  Li11  Li1+  0.965  0.235  0.658  1.000
  Li11  Li1+  0.365  0.635  0.058  1.000
  Li11  Li1+  0.165  0.435  0.058  1.000
  Li11  Li1+  0.765  0.835  0.458  1.000
  Li11  Li1+  0.165  0.835  0.058  1.000
  Li11  Li1+  0.965  0.235  0.058  1.000
  Li11  Li1+  0.565  0.835  0.658  1.000
  Li11  Li1+  0.765  0.635  0.258  1.000
  Li11  Li1+  0.365  0.435  0.458  1.000
  Li11  Li1+  0.365  0.035  0.658  1.000
  Li11  Li1+  0.965  0.835  0.858  1.000
  Li11  Li1+  0.165  0.235  0.858  1.000
  Li11  Li1+  0.565  0.235  0.658  1.000
  Li11  Li1+  0.165  0.035  0.858  1.000

#end of data
