data_generated-by-softBV

_chemical_name_systematic         'Fe3+:8.000 Li1+:12.000 O2-:48.000 P5+:12.000 '
_cell_length_a                    43.760
_cell_length_b                    43.814
_cell_length_c                    60.812
_cell_angle_alpha                 90.000
_cell_angle_beta                  90.000
_cell_angle_gamma                 90.000
_cell_volume                      116595.291
_cell_formula_units_Z             0
_symmetry_space_group_name_H-M    'P 1'
_symmetry_Int_Tables_number       1

loop_
  _symmetry_equiv_pos_site_id
  _symmetry_equiv_pos_as_xyz
    1    'x, y, z'

loop_
  _atom_type_symbol
  _atom_type_oxidation_number
  Fe3+     3
  Li1+     1
  O2-     -2
  P5+     5

loop_
  _atom_site_label
  _atom_site_type_symbol
  _atom_site_fract_x
  _atom_site_fract_y
  _atom_site_fract_z
  _atom_site_occupancy
  Fe12  Fe3+  0.099  0.159  0.122  1.000
  Fe12  Fe3+  0.099  0.159  0.322  1.000
  Fe12  Fe3+  0.099  0.159  0.522  1.000
  Fe12  Fe3+  0.099  0.159  0.722  1.000
  Fe12  Fe3+  0.099  0.159  0.922  1.000
  Fe12  Fe3+  0.099  0.359  0.122  1.000
  Fe12  Fe3+  0.099  0.359  0.322  1.000
  Fe12  Fe3+  0.099  0.359  0.522  1.000
  Fe12  Fe3+  0.099  0.359  0.722  1.000
  Fe12  Fe3+  0.099  0.359  0.922  1.000
  Fe12  Fe3+  0.099  0.559  0.122  1.000
  Fe12  Fe3+  0.099  0.559  0.322  1.000
  Fe12  Fe3+  0.099  0.559  0.522  1.000
  Fe12  Fe3+  0.099  0.559  0.722  1.000
  Fe12  Fe3+  0.099  0.559  0.922  1.000
  Fe12  Fe3+  0.099  0.759  0.122  1.000
  Fe12  Fe3+  0.099  0.759  0.322  1.000
  Fe12  Fe3+  0.099  0.759  0.522  1.000
  Fe12  Fe3+  0.099  0.759  0.722  1.000
  Fe12  Fe3+  0.099  0.759  0.922  1.000
  Fe12  Fe3+  0.099  0.959  0.122  1.000
  Fe12  Fe3+  0.099  0.959  0.322  1.000
  Fe12  Fe3+  0.099  0.959  0.522  1.000
  Fe12  Fe3+  0.099  0.959  0.722  1.000
  Fe12  Fe3+  0.099  0.959  0.922  1.000
  Fe12  Fe3+  0.299  0.159  0.122  1.000
  Fe12  Fe3+  0.299  0.159  0.322  1.000
  Fe12  Fe3+  0.299  0.159  0.522  1.000
  Fe12  Fe3+  0.299  0.159  0.722  1.000
  Fe12  Fe3+  0.299  0.159  0.922  1.000
  Fe12  Fe3+  0.299  0.359  0.122  1.000
  Fe12  Fe3+  0.299  0.359  0.322  1.000
  Fe12  Fe3+  0.299  0.359  0.522  1.000
  Fe12  Fe3+  0.299  0.359  0.722  1.000
  Fe12  Fe3+  0.299  0.359  0.922  1.000
  Fe12  Fe3+  0.299  0.559  0.122  1.000
  Fe12  Fe3+  0.299  0.559  0.322  1.000
  Fe12  Fe3+  0.299  0.559  0.522  1.000
  Fe12  Fe3+  0.299  0.559  0.722  1.000
  Fe12  Fe3+  0.299  0.559  0.922  1.000
  Fe12  Fe3+  0.299  0.759  0.122  1.000
  Fe12  Fe3+  0.299  0.759  0.322  1.000
  Fe12  Fe3+  0.299  0.759  0.522  1.000
  Fe12  Fe3+  0.299  0.759  0.722  1.000
  Fe12  Fe3+  0.299  0.759  0.922  1.000
  Fe12  Fe3+  0.299  0.959  0.122  1.000
  Fe12  Fe3+  0.299  0.959  0.322  1.000
  Fe12  Fe3+  0.299  0.959  0.522  1.000
  Fe12  Fe3+  0.299  0.959  0.722  1.000
  Fe12  Fe3+  0.299  0.959  0.922  1.000
  Fe12  Fe3+  0.499  0.159  0.122  1.000
  Fe12  Fe3+  0.499  0.159  0.322  1.000
  Fe12  Fe3+  0.499  0.159  0.522  1.000
  Fe12  Fe3+  0.499  0.159  0.722  1.000
  Fe12  Fe3+  0.499  0.159  0.922  1.000
  Fe12  Fe3+  0.499  0.359  0.122  1.000
  Fe12  Fe3+  0.499  0.359  0.322  1.000
  Fe12  Fe3+  0.499  0.359  0.522  1.000
  Fe12  Fe3+  0.499  0.359  0.722  1.000
  Fe12  Fe3+  0.499  0.359  0.922  1.000
  Fe12  Fe3+  0.499  0.559  0.122  1.000
  Fe12  Fe3+  0.499  0.559  0.322  1.000
  Fe12  Fe3+  0.499  0.559  0.522  1.000
  Fe12  Fe3+  0.499  0.559  0.722  1.000
  Fe12  Fe3+  0.499  0.559  0.922  1.000
  Fe12  Fe3+  0.499  0.759  0.122  1.000
  Fe12  Fe3+  0.499  0.759  0.322  1.000
  Fe12  Fe3+  0.499  0.759  0.522  1.000
  Fe12  Fe3+  0.499  0.759  0.722  1.000
  Fe12  Fe3+  0.499  0.759  0.922  1.000
  Fe12  Fe3+  0.499  0.959  0.122  1.000
  Fe12  Fe3+  0.499  0.959  0.322  1.000
  Fe12  Fe3+  0.499  0.959  0.522  1.000
  Fe12  Fe3+  0.499  0.959  0.722  1.000
  Fe12  Fe3+  0.499  0.959  0.922  1.000
  Fe12  Fe3+  0.699  0.159  0.122  1.000
  Fe12  Fe3+  0.699  0.159  0.322  1.000
  Fe12  Fe3+  0.699  0.159  0.522  1.000
  Fe12  Fe3+  0.699  0.159  0.722  1.000
  Fe12  Fe3+  0.699  0.159  0.922  1.000
  Fe12  Fe3+  0.699  0.359  0.122  1.000
  Fe12  Fe3+  0.699  0.359  0.322  1.000
  Fe12  Fe3+  0.699  0.359  0.522  1.000
  Fe12  Fe3+  0.699  0.359  0.722  1.000
  Fe12  Fe3+  0.699  0.359  0.922  1.000
  Fe12  Fe3+  0.699  0.559  0.122  1.000
  Fe12  Fe3+  0.699  0.559  0.322  1.000
  Fe12  Fe3+  0.699  0.559  0.522  1.000
  Fe12  Fe3+  0.699  0.559  0.722  1.000
  Fe12  Fe3+  0.699  0.559  0.922  1.000
  Fe12  Fe3+  0.699  0.759  0.122  1.000
  Fe12  Fe3+  0.699  0.759  0.322  1.000
  Fe12  Fe3+  0.699  0.759  0.522  1.000
  Fe12  Fe3+  0.699  0.759  0.722  1.000
  Fe12  Fe3+  0.699  0.759  0.922  1.000
  Fe12  Fe3+  0.699  0.959  0.122  1.000
  Fe12  Fe3+  0.699  0.959  0.322  1.000
  Fe12  Fe3+  0.699  0.959  0.522  1.000
  Fe12  Fe3+  0.699  0.959  0.722  1.000
  Fe12  Fe3+  0.699  0.959  0.922  1.000
  Fe12  Fe3+  0.899  0.159  0.122  1.000
  Fe12  Fe3+  0.899  0.159  0.322  1.000
  Fe12  Fe3+  0.899  0.159  0.522  1.000
  Fe12  Fe3+  0.899  0.159  0.722  1.000
  Fe12  Fe3+  0.899  0.159  0.922  1.000
  Fe12  Fe3+  0.899  0.359  0.122  1.000
  Fe12  Fe3+  0.899  0.359  0.322  1.000
  Fe12  Fe3+  0.899  0.359  0.522  1.000
  Fe12  Fe3+  0.899  0.359  0.722  1.000
  Fe12  Fe3+  0.899  0.359  0.922  1.000
  Fe12  Fe3+  0.899  0.559  0.122  1.000
  Fe12  Fe3+  0.899  0.559  0.322  1.000
  Fe12  Fe3+  0.899  0.559  0.522  1.000
  Fe12  Fe3+  0.899  0.559  0.722  1.000
  Fe12  Fe3+  0.899  0.559  0.922  1.000
  Fe12  Fe3+  0.899  0.759  0.122  1.000
  Fe12  Fe3+  0.899  0.759  0.322  1.000
  Fe12  Fe3+  0.899  0.759  0.522  1.000
  Fe12  Fe3+  0.899  0.759  0.722  1.000
  Fe12  Fe3+  0.899  0.759  0.922  1.000
  Fe12  Fe3+  0.899  0.959  0.122  1.000
  Fe12  Fe3+  0.899  0.959  0.322  1.000
  Fe12  Fe3+  0.899  0.959  0.522  1.000
  Fe12  Fe3+  0.899  0.959  0.722  1.000
  Fe12  Fe3+  0.899  0.959  0.922  1.000
  Fe13  Fe3+  0.099  0.041  0.078  1.000
  Fe13  Fe3+  0.099  0.041  0.278  1.000
  Fe13  Fe3+  0.099  0.041  0.478  1.000
  Fe13  Fe3+  0.099  0.041  0.678  1.000
  Fe13  Fe3+  0.099  0.041  0.878  1.000
  Fe13  Fe3+  0.099  0.241  0.078  1.000
  Fe13  Fe3+  0.099  0.241  0.278  1.000
  Fe13  Fe3+  0.099  0.241  0.478  1.000
  Fe13  Fe3+  0.099  0.241  0.678  1.000
  Fe13  Fe3+  0.099  0.241  0.878  1.000
  Fe13  Fe3+  0.099  0.441  0.078  1.000
  Fe13  Fe3+  0.099  0.441  0.278  1.000
  Fe13  Fe3+  0.099  0.441  0.478  1.000
  Fe13  Fe3+  0.099  0.441  0.678  1.000
  Fe13  Fe3+  0.099  0.441  0.878  1.000
  Fe13  Fe3+  0.099  0.641  0.078  1.000
  Fe13  Fe3+  0.099  0.641  0.278  1.000
  Fe13  Fe3+  0.099  0.641  0.478  1.000
  Fe13  Fe3+  0.099  0.641  0.678  1.000
  Fe13  Fe3+  0.099  0.641  0.878  1.000
  Fe13  Fe3+  0.099  0.841  0.078  1.000
  Fe13  Fe3+  0.099  0.841  0.278  1.000
  Fe13  Fe3+  0.099  0.841  0.478  1.000
  Fe13  Fe3+  0.099  0.841  0.678  1.000
  Fe13  Fe3+  0.099  0.841  0.878  1.000
  Fe13  Fe3+  0.299  0.041  0.078  1.000
  Fe13  Fe3+  0.299  0.041  0.278  1.000
  Fe13  Fe3+  0.299  0.041  0.478  1.000
  Fe13  Fe3+  0.299  0.041  0.678  1.000
  Fe13  Fe3+  0.299  0.041  0.878  1.000
  Fe13  Fe3+  0.299  0.241  0.078  1.000
  Fe13  Fe3+  0.299  0.241  0.278  1.000
  Fe13  Fe3+  0.299  0.241  0.478  1.000
  Fe13  Fe3+  0.299  0.241  0.678  1.000
  Fe13  Fe3+  0.299  0.241  0.878  1.000
  Fe13  Fe3+  0.299  0.441  0.078  1.000
  Fe13  Fe3+  0.299  0.441  0.278  1.000
  Fe13  Fe3+  0.299  0.441  0.478  1.000
  Fe13  Fe3+  0.299  0.441  0.678  1.000
  Fe13  Fe3+  0.299  0.441  0.878  1.000
  Fe13  Fe3+  0.299  0.641  0.078  1.000
  Fe13  Fe3+  0.299  0.641  0.278  1.000
  Fe13  Fe3+  0.299  0.641  0.478  1.000
  Fe13  Fe3+  0.299  0.641  0.678  1.000
  Fe13  Fe3+  0.299  0.641  0.878  1.000
  Fe13  Fe3+  0.299  0.841  0.078  1.000
  Fe13  Fe3+  0.299  0.841  0.278  1.000
  Fe13  Fe3+  0.299  0.841  0.478  1.000
  Fe13  Fe3+  0.299  0.841  0.678  1.000
  Fe13  Fe3+  0.299  0.841  0.878  1.000
  Fe13  Fe3+  0.499  0.041  0.078  1.000
  Fe13  Fe3+  0.499  0.041  0.278  1.000
  Fe13  Fe3+  0.499  0.041  0.478  1.000
  Fe13  Fe3+  0.499  0.041  0.678  1.000
  Fe13  Fe3+  0.499  0.041  0.878  1.000
  Fe13  Fe3+  0.499  0.241  0.078  1.000
  Fe13  Fe3+  0.499  0.241  0.278  1.000
  Fe13  Fe3+  0.499  0.241  0.478  1.000
  Fe13  Fe3+  0.499  0.241  0.678  1.000
  Fe13  Fe3+  0.499  0.241  0.878  1.000
  Fe13  Fe3+  0.499  0.441  0.078  1.000
  Fe13  Fe3+  0.499  0.441  0.278  1.000
  Fe13  Fe3+  0.499  0.441  0.478  1.000
  Fe13  Fe3+  0.499  0.441  0.678  1.000
  Fe13  Fe3+  0.499  0.441  0.878  1.000
  Fe13  Fe3+  0.499  0.641  0.078  1.000
  Fe13  Fe3+  0.499  0.641  0.278  1.000
  Fe13  Fe3+  0.499  0.641  0.478  1.000
  Fe13  Fe3+  0.499  0.641  0.678  1.000
  Fe13  Fe3+  0.499  0.641  0.878  1.000
  Fe13  Fe3+  0.499  0.841  0.078  1.000
  Fe13  Fe3+  0.499  0.841  0.278  1.000
  Fe13  Fe3+  0.499  0.841  0.478  1.000
  Fe13  Fe3+  0.499  0.841  0.678  1.000
  Fe13  Fe3+  0.499  0.841  0.878  1.000
  Fe13  Fe3+  0.699  0.041  0.078  1.000
  Fe13  Fe3+  0.699  0.041  0.278  1.000
  Fe13  Fe3+  0.699  0.041  0.478  1.000
  Fe13  Fe3+  0.699  0.041  0.678  1.000
  Fe13  Fe3+  0.699  0.041  0.878  1.000
  Fe13  Fe3+  0.699  0.241  0.078  1.000
  Fe13  Fe3+  0.699  0.241  0.278  1.000
  Fe13  Fe3+  0.699  0.241  0.478  1.000
  Fe13  Fe3+  0.699  0.241  0.678  1.000
  Fe13  Fe3+  0.699  0.241  0.878  1.000
  Fe13  Fe3+  0.699  0.441  0.078  1.000
  Fe13  Fe3+  0.699  0.441  0.278  1.000
  Fe13  Fe3+  0.699  0.441  0.478  1.000
  Fe13  Fe3+  0.699  0.441  0.678  1.000
  Fe13  Fe3+  0.699  0.441  0.878  1.000
  Fe13  Fe3+  0.699  0.641  0.078  1.000
  Fe13  Fe3+  0.699  0.641  0.278  1.000
  Fe13  Fe3+  0.699  0.641  0.478  1.000
  Fe13  Fe3+  0.699  0.641  0.678  1.000
  Fe13  Fe3+  0.699  0.641  0.878  1.000
  Fe13  Fe3+  0.699  0.841  0.078  1.000
  Fe13  Fe3+  0.699  0.841  0.278  1.000
  Fe13  Fe3+  0.699  0.841  0.478  1.000
  Fe13  Fe3+  0.699  0.841  0.678  1.000
  Fe13  Fe3+  0.699  0.841  0.878  1.000
  Fe13  Fe3+  0.899  0.041  0.078  1.000
  Fe13  Fe3+  0.899  0.041  0.278  1.000
  Fe13  Fe3+  0.899  0.041  0.478  1.000
  Fe13  Fe3+  0.899  0.041  0.678  1.000
  Fe13  Fe3+  0.899  0.041  0.878  1.000
  Fe13  Fe3+  0.899  0.241  0.078  1.000
  Fe13  Fe3+  0.899  0.241  0.278  1.000
  Fe13  Fe3+  0.899  0.241  0.478  1.000
  Fe13  Fe3+  0.899  0.241  0.678  1.000
  Fe13  Fe3+  0.899  0.241  0.878  1.000
  Fe13  Fe3+  0.899  0.441  0.078  1.000
  Fe13  Fe3+  0.899  0.441  0.278  1.000
  Fe13  Fe3+  0.899  0.441  0.478  1.000
  Fe13  Fe3+  0.899  0.441  0.678  1.000
  Fe13  Fe3+  0.899  0.441  0.878  1.000
  Fe13  Fe3+  0.899  0.641  0.078  1.000
  Fe13  Fe3+  0.899  0.641  0.278  1.000
  Fe13  Fe3+  0.899  0.641  0.478  1.000
  Fe13  Fe3+  0.899  0.641  0.678  1.000
  Fe13  Fe3+  0.899  0.641  0.878  1.000
  Fe13  Fe3+  0.899  0.841  0.078  1.000
  Fe13  Fe3+  0.899  0.841  0.278  1.000
  Fe13  Fe3+  0.899  0.841  0.478  1.000
  Fe13  Fe3+  0.899  0.841  0.678  1.000
  Fe13  Fe3+  0.899  0.841  0.878  1.000
  Fe14  Fe3+  0.101  0.059  0.178  1.000
  Fe14  Fe3+  0.101  0.059  0.378  1.000
  Fe14  Fe3+  0.101  0.059  0.578  1.000
  Fe14  Fe3+  0.101  0.059  0.778  1.000
  Fe14  Fe3+  0.101  0.059  0.978  1.000
  Fe14  Fe3+  0.101  0.259  0.178  1.000
  Fe14  Fe3+  0.101  0.259  0.378  1.000
  Fe14  Fe3+  0.101  0.259  0.578  1.000
  Fe14  Fe3+  0.101  0.259  0.778  1.000
  Fe14  Fe3+  0.101  0.259  0.978  1.000
  Fe14  Fe3+  0.101  0.459  0.178  1.000
  Fe14  Fe3+  0.101  0.459  0.378  1.000
  Fe14  Fe3+  0.101  0.459  0.578  1.000
  Fe14  Fe3+  0.101  0.459  0.778  1.000
  Fe14  Fe3+  0.101  0.459  0.978  1.000
  Fe14  Fe3+  0.101  0.659  0.178  1.000
  Fe14  Fe3+  0.101  0.659  0.378  1.000
  Fe14  Fe3+  0.101  0.659  0.578  1.000
  Fe14  Fe3+  0.101  0.659  0.778  1.000
  Fe14  Fe3+  0.101  0.659  0.978  1.000
  Fe14  Fe3+  0.101  0.859  0.178  1.000
  Fe14  Fe3+  0.101  0.859  0.378  1.000
  Fe14  Fe3+  0.101  0.859  0.578  1.000
  Fe14  Fe3+  0.101  0.859  0.778  1.000
  Fe14  Fe3+  0.101  0.859  0.978  1.000
  Fe14  Fe3+  0.301  0.059  0.178  1.000
  Fe14  Fe3+  0.301  0.059  0.378  1.000
  Fe14  Fe3+  0.301  0.059  0.578  1.000
  Fe14  Fe3+  0.301  0.059  0.778  1.000
  Fe14  Fe3+  0.301  0.059  0.978  1.000
  Fe14  Fe3+  0.301  0.259  0.178  1.000
  Fe14  Fe3+  0.301  0.259  0.378  1.000
  Fe14  Fe3+  0.301  0.259  0.578  1.000
  Fe14  Fe3+  0.301  0.259  0.778  1.000
  Fe14  Fe3+  0.301  0.259  0.978  1.000
  Fe14  Fe3+  0.301  0.459  0.178  1.000
  Fe14  Fe3+  0.301  0.459  0.378  1.000
  Fe14  Fe3+  0.301  0.459  0.578  1.000
  Fe14  Fe3+  0.301  0.459  0.778  1.000
  Fe14  Fe3+  0.301  0.459  0.978  1.000
  Fe14  Fe3+  0.301  0.659  0.178  1.000
  Fe14  Fe3+  0.301  0.659  0.378  1.000
  Fe14  Fe3+  0.301  0.659  0.578  1.000
  Fe14  Fe3+  0.301  0.659  0.778  1.000
  Fe14  Fe3+  0.301  0.659  0.978  1.000
  Fe14  Fe3+  0.301  0.859  0.178  1.000
  Fe14  Fe3+  0.301  0.859  0.378  1.000
  Fe14  Fe3+  0.301  0.859  0.578  1.000
  Fe14  Fe3+  0.301  0.859  0.778  1.000
  Fe14  Fe3+  0.301  0.859  0.978  1.000
  Fe14  Fe3+  0.501  0.059  0.178  1.000
  Fe14  Fe3+  0.501  0.059  0.378  1.000
  Fe14  Fe3+  0.501  0.059  0.578  1.000
  Fe14  Fe3+  0.501  0.059  0.778  1.000
  Fe14  Fe3+  0.501  0.059  0.978  1.000
  Fe14  Fe3+  0.501  0.259  0.178  1.000
  Fe14  Fe3+  0.501  0.259  0.378  1.000
  Fe14  Fe3+  0.501  0.259  0.578  1.000
  Fe14  Fe3+  0.501  0.259  0.778  1.000
  Fe14  Fe3+  0.501  0.259  0.978  1.000
  Fe14  Fe3+  0.501  0.459  0.178  1.000
  Fe14  Fe3+  0.501  0.459  0.378  1.000
  Fe14  Fe3+  0.501  0.459  0.578  1.000
  Fe14  Fe3+  0.501  0.459  0.778  1.000
  Fe14  Fe3+  0.501  0.459  0.978  1.000
  Fe14  Fe3+  0.501  0.659  0.178  1.000
  Fe14  Fe3+  0.501  0.659  0.378  1.000
  Fe14  Fe3+  0.501  0.659  0.578  1.000
  Fe14  Fe3+  0.501  0.659  0.778  1.000
  Fe14  Fe3+  0.501  0.659  0.978  1.000
  Fe14  Fe3+  0.501  0.859  0.178  1.000
  Fe14  Fe3+  0.501  0.859  0.378  1.000
  Fe14  Fe3+  0.501  0.859  0.578  1.000
  Fe14  Fe3+  0.501  0.859  0.778  1.000
  Fe14  Fe3+  0.501  0.859  0.978  1.000
  Fe14  Fe3+  0.701  0.059  0.178  1.000
  Fe14  Fe3+  0.701  0.059  0.378  1.000
  Fe14  Fe3+  0.701  0.059  0.578  1.000
  Fe14  Fe3+  0.701  0.059  0.778  1.000
  Fe14  Fe3+  0.701  0.059  0.978  1.000
  Fe14  Fe3+  0.701  0.259  0.178  1.000
  Fe14  Fe3+  0.701  0.259  0.378  1.000
  Fe14  Fe3+  0.701  0.259  0.578  1.000
  Fe14  Fe3+  0.701  0.259  0.778  1.000
  Fe14  Fe3+  0.701  0.259  0.978  1.000
  Fe14  Fe3+  0.701  0.459  0.178  1.000
  Fe14  Fe3+  0.701  0.459  0.378  1.000
  Fe14  Fe3+  0.701  0.459  0.578  1.000
  Fe14  Fe3+  0.701  0.459  0.778  1.000
  Fe14  Fe3+  0.701  0.459  0.978  1.000
  Fe14  Fe3+  0.701  0.659  0.178  1.000
  Fe14  Fe3+  0.701  0.659  0.378  1.000
  Fe14  Fe3+  0.701  0.659  0.578  1.000
  Fe14  Fe3+  0.701  0.659  0.778  1.000
  Fe14  Fe3+  0.701  0.659  0.978  1.000
  Fe14  Fe3+  0.701  0.859  0.178  1.000
  Fe14  Fe3+  0.701  0.859  0.378  1.000
  Fe14  Fe3+  0.701  0.859  0.578  1.000
  Fe14  Fe3+  0.701  0.859  0.778  1.000
  Fe14  Fe3+  0.701  0.859  0.978  1.000
  Fe14  Fe3+  0.901  0.059  0.178  1.000
  Fe14  Fe3+  0.901  0.059  0.378  1.000
  Fe14  Fe3+  0.901  0.059  0.578  1.000
  Fe14  Fe3+  0.901  0.059  0.778  1.000
  Fe14  Fe3+  0.901  0.059  0.978  1.000
  Fe14  Fe3+  0.901  0.259  0.178  1.000
  Fe14  Fe3+  0.901  0.259  0.378  1.000
  Fe14  Fe3+  0.901  0.259  0.578  1.000
  Fe14  Fe3+  0.901  0.259  0.778  1.000
  Fe14  Fe3+  0.901  0.259  0.978  1.000
  Fe14  Fe3+  0.901  0.459  0.178  1.000
  Fe14  Fe3+  0.901  0.459  0.378  1.000
  Fe14  Fe3+  0.901  0.459  0.578  1.000
  Fe14  Fe3+  0.901  0.459  0.778  1.000
  Fe14  Fe3+  0.901  0.459  0.978  1.000
  Fe14  Fe3+  0.901  0.659  0.178  1.000
  Fe14  Fe3+  0.901  0.659  0.378  1.000
  Fe14  Fe3+  0.901  0.659  0.578  1.000
  Fe14  Fe3+  0.901  0.659  0.778  1.000
  Fe14  Fe3+  0.901  0.659  0.978  1.000
  Fe14  Fe3+  0.901  0.859  0.178  1.000
  Fe14  Fe3+  0.901  0.859  0.378  1.000
  Fe14  Fe3+  0.901  0.859  0.578  1.000
  Fe14  Fe3+  0.901  0.859  0.778  1.000
  Fe14  Fe3+  0.901  0.859  0.978  1.000
  Fe15  Fe3+  0.101  0.141  0.022  1.000
  Fe15  Fe3+  0.101  0.141  0.222  1.000
  Fe15  Fe3+  0.101  0.141  0.422  1.000
  Fe15  Fe3+  0.101  0.141  0.622  1.000
  Fe15  Fe3+  0.101  0.141  0.822  1.000
  Fe15  Fe3+  0.101  0.341  0.022  1.000
  Fe15  Fe3+  0.101  0.341  0.222  1.000
  Fe15  Fe3+  0.101  0.341  0.422  1.000
  Fe15  Fe3+  0.101  0.341  0.622  1.000
  Fe15  Fe3+  0.101  0.341  0.822  1.000
  Fe15  Fe3+  0.101  0.541  0.022  1.000
  Fe15  Fe3+  0.101  0.541  0.222  1.000
  Fe15  Fe3+  0.101  0.541  0.422  1.000
  Fe15  Fe3+  0.101  0.541  0.622  1.000
  Fe15  Fe3+  0.101  0.541  0.822  1.000
  Fe15  Fe3+  0.101  0.741  0.022  1.000
  Fe15  Fe3+  0.101  0.741  0.222  1.000
  Fe15  Fe3+  0.101  0.741  0.422  1.000
  Fe15  Fe3+  0.101  0.741  0.622  1.000
  Fe15  Fe3+  0.101  0.741  0.822  1.000
  Fe15  Fe3+  0.101  0.941  0.022  1.000
  Fe15  Fe3+  0.101  0.941  0.222  1.000
  Fe15  Fe3+  0.101  0.941  0.422  1.000
  Fe15  Fe3+  0.101  0.941  0.622  1.000
  Fe15  Fe3+  0.101  0.941  0.822  1.000
  Fe15  Fe3+  0.301  0.141  0.022  1.000
  Fe15  Fe3+  0.301  0.141  0.222  1.000
  Fe15  Fe3+  0.301  0.141  0.422  1.000
  Fe15  Fe3+  0.301  0.141  0.622  1.000
  Fe15  Fe3+  0.301  0.141  0.822  1.000
  Fe15  Fe3+  0.301  0.341  0.022  1.000
  Fe15  Fe3+  0.301  0.341  0.222  1.000
  Fe15  Fe3+  0.301  0.341  0.422  1.000
  Fe15  Fe3+  0.301  0.341  0.622  1.000
  Fe15  Fe3+  0.301  0.341  0.822  1.000
  Fe15  Fe3+  0.301  0.541  0.022  1.000
  Fe15  Fe3+  0.301  0.541  0.222  1.000
  Fe15  Fe3+  0.301  0.541  0.422  1.000
  Fe15  Fe3+  0.301  0.541  0.622  1.000
  Fe15  Fe3+  0.301  0.541  0.822  1.000
  Fe15  Fe3+  0.301  0.741  0.022  1.000
  Fe15  Fe3+  0.301  0.741  0.222  1.000
  Fe15  Fe3+  0.301  0.741  0.422  1.000
  Fe15  Fe3+  0.301  0.741  0.622  1.000
  Fe15  Fe3+  0.301  0.741  0.822  1.000
  Fe15  Fe3+  0.301  0.941  0.022  1.000
  Fe15  Fe3+  0.301  0.941  0.222  1.000
  Fe15  Fe3+  0.301  0.941  0.422  1.000
  Fe15  Fe3+  0.301  0.941  0.622  1.000
  Fe15  Fe3+  0.301  0.941  0.822  1.000
  Fe15  Fe3+  0.501  0.141  0.022  1.000
  Fe15  Fe3+  0.501  0.141  0.222  1.000
  Fe15  Fe3+  0.501  0.141  0.422  1.000
  Fe15  Fe3+  0.501  0.141  0.622  1.000
  Fe15  Fe3+  0.501  0.141  0.822  1.000
  Fe15  Fe3+  0.501  0.341  0.022  1.000
  Fe15  Fe3+  0.501  0.341  0.222  1.000
  Fe15  Fe3+  0.501  0.341  0.422  1.000
  Fe15  Fe3+  0.501  0.341  0.622  1.000
  Fe15  Fe3+  0.501  0.341  0.822  1.000
  Fe15  Fe3+  0.501  0.541  0.022  1.000
  Fe15  Fe3+  0.501  0.541  0.222  1.000
  Fe15  Fe3+  0.501  0.541  0.422  1.000
  Fe15  Fe3+  0.501  0.541  0.622  1.000
  Fe15  Fe3+  0.501  0.541  0.822  1.000
  Fe15  Fe3+  0.501  0.741  0.022  1.000
  Fe15  Fe3+  0.501  0.741  0.222  1.000
  Fe15  Fe3+  0.501  0.741  0.422  1.000
  Fe15  Fe3+  0.501  0.741  0.622  1.000
  Fe15  Fe3+  0.501  0.741  0.822  1.000
  Fe15  Fe3+  0.501  0.941  0.022  1.000
  Fe15  Fe3+  0.501  0.941  0.222  1.000
  Fe15  Fe3+  0.501  0.941  0.422  1.000
  Fe15  Fe3+  0.501  0.941  0.622  1.000
  Fe15  Fe3+  0.501  0.941  0.822  1.000
  Fe15  Fe3+  0.701  0.141  0.022  1.000
  Fe15  Fe3+  0.701  0.141  0.222  1.000
  Fe15  Fe3+  0.701  0.141  0.422  1.000
  Fe15  Fe3+  0.701  0.141  0.622  1.000
  Fe15  Fe3+  0.701  0.141  0.822  1.000
  Fe15  Fe3+  0.701  0.341  0.022  1.000
  Fe15  Fe3+  0.701  0.341  0.222  1.000
  Fe15  Fe3+  0.701  0.341  0.422  1.000
  Fe15  Fe3+  0.701  0.341  0.622  1.000
  Fe15  Fe3+  0.701  0.341  0.822  1.000
  Fe15  Fe3+  0.701  0.541  0.022  1.000
  Fe15  Fe3+  0.701  0.541  0.222  1.000
  Fe15  Fe3+  0.701  0.541  0.422  1.000
  Fe15  Fe3+  0.701  0.541  0.622  1.000
  Fe15  Fe3+  0.701  0.541  0.822  1.000
  Fe15  Fe3+  0.701  0.741  0.022  1.000
  Fe15  Fe3+  0.701  0.741  0.222  1.000
  Fe15  Fe3+  0.701  0.741  0.422  1.000
  Fe15  Fe3+  0.701  0.741  0.622  1.000
  Fe15  Fe3+  0.701  0.741  0.822  1.000
  Fe15  Fe3+  0.701  0.941  0.022  1.000
  Fe15  Fe3+  0.701  0.941  0.222  1.000
  Fe15  Fe3+  0.701  0.941  0.422  1.000
  Fe15  Fe3+  0.701  0.941  0.622  1.000
  Fe15  Fe3+  0.701  0.941  0.822  1.000
  Fe15  Fe3+  0.901  0.141  0.022  1.000
  Fe15  Fe3+  0.901  0.141  0.222  1.000
  Fe15  Fe3+  0.901  0.141  0.422  1.000
  Fe15  Fe3+  0.901  0.141  0.622  1.000
  Fe15  Fe3+  0.901  0.141  0.822  1.000
  Fe15  Fe3+  0.901  0.341  0.022  1.000
  Fe15  Fe3+  0.901  0.341  0.222  1.000
  Fe15  Fe3+  0.901  0.341  0.422  1.000
  Fe15  Fe3+  0.901  0.341  0.622  1.000
  Fe15  Fe3+  0.901  0.341  0.822  1.000
  Fe15  Fe3+  0.901  0.541  0.022  1.000
  Fe15  Fe3+  0.901  0.541  0.222  1.000
  Fe15  Fe3+  0.901  0.541  0.422  1.000
  Fe15  Fe3+  0.901  0.541  0.622  1.000
  Fe15  Fe3+  0.901  0.541  0.822  1.000
  Fe15  Fe3+  0.901  0.741  0.022  1.000
  Fe15  Fe3+  0.901  0.741  0.222  1.000
  Fe15  Fe3+  0.901  0.741  0.422  1.000
  Fe15  Fe3+  0.901  0.741  0.622  1.000
  Fe15  Fe3+  0.901  0.741  0.822  1.000
  Fe15  Fe3+  0.901  0.941  0.022  1.000
  Fe15  Fe3+  0.901  0.941  0.222  1.000
  Fe15  Fe3+  0.901  0.941  0.422  1.000
  Fe15  Fe3+  0.901  0.941  0.622  1.000
  Fe15  Fe3+  0.901  0.941  0.822  1.000
  Fe16  Fe3+  0.002  0.159  0.179  1.000
  Fe16  Fe3+  0.002  0.159  0.379  1.000
  Fe16  Fe3+  0.002  0.159  0.579  1.000
  Fe16  Fe3+  0.002  0.159  0.779  1.000
  Fe16  Fe3+  0.002  0.159  0.979  1.000
  Fe16  Fe3+  0.002  0.359  0.179  1.000
  Fe16  Fe3+  0.002  0.359  0.379  1.000
  Fe16  Fe3+  0.002  0.359  0.579  1.000
  Fe16  Fe3+  0.002  0.359  0.779  1.000
  Fe16  Fe3+  0.002  0.359  0.979  1.000
  Fe16  Fe3+  0.002  0.559  0.179  1.000
  Fe16  Fe3+  0.002  0.559  0.379  1.000
  Fe16  Fe3+  0.002  0.559  0.579  1.000
  Fe16  Fe3+  0.002  0.559  0.779  1.000
  Fe16  Fe3+  0.002  0.559  0.979  1.000
  Fe16  Fe3+  0.002  0.759  0.179  1.000
  Fe16  Fe3+  0.002  0.759  0.379  1.000
  Fe16  Fe3+  0.002  0.759  0.579  1.000
  Fe16  Fe3+  0.002  0.759  0.779  1.000
  Fe16  Fe3+  0.002  0.759  0.979  1.000
  Fe16  Fe3+  0.002  0.959  0.179  1.000
  Fe16  Fe3+  0.002  0.959  0.379  1.000
  Fe16  Fe3+  0.002  0.959  0.579  1.000
  Fe16  Fe3+  0.002  0.959  0.779  1.000
  Fe16  Fe3+  0.002  0.959  0.979  1.000
  Fe16  Fe3+  0.202  0.159  0.179  1.000
  Fe16  Fe3+  0.202  0.159  0.379  1.000
  Fe16  Fe3+  0.202  0.159  0.579  1.000
  Fe16  Fe3+  0.202  0.159  0.779  1.000
  Fe16  Fe3+  0.202  0.159  0.979  1.000
  Fe16  Fe3+  0.202  0.359  0.179  1.000
  Fe16  Fe3+  0.202  0.359  0.379  1.000
  Fe16  Fe3+  0.202  0.359  0.579  1.000
  Fe16  Fe3+  0.202  0.359  0.779  1.000
  Fe16  Fe3+  0.202  0.359  0.979  1.000
  Fe16  Fe3+  0.202  0.559  0.179  1.000
  Fe16  Fe3+  0.202  0.559  0.379  1.000
  Fe16  Fe3+  0.202  0.559  0.579  1.000
  Fe16  Fe3+  0.202  0.559  0.779  1.000
  Fe16  Fe3+  0.202  0.559  0.979  1.000
  Fe16  Fe3+  0.202  0.759  0.179  1.000
  Fe16  Fe3+  0.202  0.759  0.379  1.000
  Fe16  Fe3+  0.202  0.759  0.579  1.000
  Fe16  Fe3+  0.202  0.759  0.779  1.000
  Fe16  Fe3+  0.202  0.759  0.979  1.000
  Fe16  Fe3+  0.202  0.959  0.179  1.000
  Fe16  Fe3+  0.202  0.959  0.379  1.000
  Fe16  Fe3+  0.202  0.959  0.579  1.000
  Fe16  Fe3+  0.202  0.959  0.779  1.000
  Fe16  Fe3+  0.202  0.959  0.979  1.000
  Fe16  Fe3+  0.402  0.159  0.179  1.000
  Fe16  Fe3+  0.402  0.159  0.379  1.000
  Fe16  Fe3+  0.402  0.159  0.579  1.000
  Fe16  Fe3+  0.402  0.159  0.779  1.000
  Fe16  Fe3+  0.402  0.159  0.979  1.000
  Fe16  Fe3+  0.402  0.359  0.179  1.000
  Fe16  Fe3+  0.402  0.359  0.379  1.000
  Fe16  Fe3+  0.402  0.359  0.579  1.000
  Fe16  Fe3+  0.402  0.359  0.779  1.000
  Fe16  Fe3+  0.402  0.359  0.979  1.000
  Fe16  Fe3+  0.402  0.559  0.179  1.000
  Fe16  Fe3+  0.402  0.559  0.379  1.000
  Fe16  Fe3+  0.402  0.559  0.579  1.000
  Fe16  Fe3+  0.402  0.559  0.779  1.000
  Fe16  Fe3+  0.402  0.559  0.979  1.000
  Fe16  Fe3+  0.402  0.759  0.179  1.000
  Fe16  Fe3+  0.402  0.759  0.379  1.000
  Fe16  Fe3+  0.402  0.759  0.579  1.000
  Fe16  Fe3+  0.402  0.759  0.779  1.000
  Fe16  Fe3+  0.402  0.759  0.979  1.000
  Fe16  Fe3+  0.402  0.959  0.179  1.000
  Fe16  Fe3+  0.402  0.959  0.379  1.000
  Fe16  Fe3+  0.402  0.959  0.579  1.000
  Fe16  Fe3+  0.402  0.959  0.779  1.000
  Fe16  Fe3+  0.402  0.959  0.979  1.000
  Fe16  Fe3+  0.602  0.159  0.179  1.000
  Fe16  Fe3+  0.602  0.159  0.379  1.000
  Fe16  Fe3+  0.602  0.159  0.579  1.000
  Fe16  Fe3+  0.602  0.159  0.779  1.000
  Fe16  Fe3+  0.602  0.159  0.979  1.000
  Fe16  Fe3+  0.602  0.359  0.179  1.000
  Fe16  Fe3+  0.602  0.359  0.379  1.000
  Fe16  Fe3+  0.602  0.359  0.579  1.000
  Fe16  Fe3+  0.602  0.359  0.779  1.000
  Fe16  Fe3+  0.602  0.359  0.979  1.000
  Fe16  Fe3+  0.602  0.559  0.179  1.000
  Fe16  Fe3+  0.602  0.559  0.379  1.000
  Fe16  Fe3+  0.602  0.559  0.579  1.000
  Fe16  Fe3+  0.602  0.559  0.779  1.000
  Fe16  Fe3+  0.602  0.559  0.979  1.000
  Fe16  Fe3+  0.602  0.759  0.179  1.000
  Fe16  Fe3+  0.602  0.759  0.379  1.000
  Fe16  Fe3+  0.602  0.759  0.579  1.000
  Fe16  Fe3+  0.602  0.759  0.779  1.000
  Fe16  Fe3+  0.602  0.759  0.979  1.000
  Fe16  Fe3+  0.602  0.959  0.179  1.000
  Fe16  Fe3+  0.602  0.959  0.379  1.000
  Fe16  Fe3+  0.602  0.959  0.579  1.000
  Fe16  Fe3+  0.602  0.959  0.779  1.000
  Fe16  Fe3+  0.602  0.959  0.979  1.000
  Fe16  Fe3+  0.802  0.159  0.179  1.000
  Fe16  Fe3+  0.802  0.159  0.379  1.000
  Fe16  Fe3+  0.802  0.159  0.579  1.000
  Fe16  Fe3+  0.802  0.159  0.779  1.000
  Fe16  Fe3+  0.802  0.159  0.979  1.000
  Fe16  Fe3+  0.802  0.359  0.179  1.000
  Fe16  Fe3+  0.802  0.359  0.379  1.000
  Fe16  Fe3+  0.802  0.359  0.579  1.000
  Fe16  Fe3+  0.802  0.359  0.779  1.000
  Fe16  Fe3+  0.802  0.359  0.979  1.000
  Fe16  Fe3+  0.802  0.559  0.179  1.000
  Fe16  Fe3+  0.802  0.559  0.379  1.000
  Fe16  Fe3+  0.802  0.559  0.579  1.000
  Fe16  Fe3+  0.802  0.559  0.779  1.000
  Fe16  Fe3+  0.802  0.559  0.979  1.000
  Fe16  Fe3+  0.802  0.759  0.179  1.000
  Fe16  Fe3+  0.802  0.759  0.379  1.000
  Fe16  Fe3+  0.802  0.759  0.579  1.000
  Fe16  Fe3+  0.802  0.759  0.779  1.000
  Fe16  Fe3+  0.802  0.759  0.979  1.000
  Fe16  Fe3+  0.802  0.959  0.179  1.000
  Fe16  Fe3+  0.802  0.959  0.379  1.000
  Fe16  Fe3+  0.802  0.959  0.579  1.000
  Fe16  Fe3+  0.802  0.959  0.779  1.000
  Fe16  Fe3+  0.802  0.959  0.979  1.000
  Fe17  Fe3+  0.002  0.041  0.021  1.000
  Fe17  Fe3+  0.002  0.041  0.221  1.000
  Fe17  Fe3+  0.002  0.041  0.421  1.000
  Fe17  Fe3+  0.002  0.041  0.621  1.000
  Fe17  Fe3+  0.002  0.041  0.821  1.000
  Fe17  Fe3+  0.002  0.241  0.021  1.000
  Fe17  Fe3+  0.002  0.241  0.221  1.000
  Fe17  Fe3+  0.002  0.241  0.421  1.000
  Fe17  Fe3+  0.002  0.241  0.621  1.000
  Fe17  Fe3+  0.002  0.241  0.821  1.000
  Fe17  Fe3+  0.002  0.441  0.021  1.000
  Fe17  Fe3+  0.002  0.441  0.221  1.000
  Fe17  Fe3+  0.002  0.441  0.421  1.000
  Fe17  Fe3+  0.002  0.441  0.621  1.000
  Fe17  Fe3+  0.002  0.441  0.821  1.000
  Fe17  Fe3+  0.002  0.641  0.021  1.000
  Fe17  Fe3+  0.002  0.641  0.221  1.000
  Fe17  Fe3+  0.002  0.641  0.421  1.000
  Fe17  Fe3+  0.002  0.641  0.621  1.000
  Fe17  Fe3+  0.002  0.641  0.821  1.000
  Fe17  Fe3+  0.002  0.841  0.021  1.000
  Fe17  Fe3+  0.002  0.841  0.221  1.000
  Fe17  Fe3+  0.002  0.841  0.421  1.000
  Fe17  Fe3+  0.002  0.841  0.621  1.000
  Fe17  Fe3+  0.002  0.841  0.821  1.000
  Fe17  Fe3+  0.202  0.041  0.021  1.000
  Fe17  Fe3+  0.202  0.041  0.221  1.000
  Fe17  Fe3+  0.202  0.041  0.421  1.000
  Fe17  Fe3+  0.202  0.041  0.621  1.000
  Fe17  Fe3+  0.202  0.041  0.821  1.000
  Fe17  Fe3+  0.202  0.241  0.021  1.000
  Fe17  Fe3+  0.202  0.241  0.221  1.000
  Fe17  Fe3+  0.202  0.241  0.421  1.000
  Fe17  Fe3+  0.202  0.241  0.621  1.000
  Fe17  Fe3+  0.202  0.241  0.821  1.000
  Fe17  Fe3+  0.202  0.441  0.021  1.000
  Fe17  Fe3+  0.202  0.441  0.221  1.000
  Fe17  Fe3+  0.202  0.441  0.421  1.000
  Fe17  Fe3+  0.202  0.441  0.621  1.000
  Fe17  Fe3+  0.202  0.441  0.821  1.000
  Fe17  Fe3+  0.202  0.641  0.021  1.000
  Fe17  Fe3+  0.202  0.641  0.221  1.000
  Fe17  Fe3+  0.202  0.641  0.421  1.000
  Fe17  Fe3+  0.202  0.641  0.621  1.000
  Fe17  Fe3+  0.202  0.641  0.821  1.000
  Fe17  Fe3+  0.202  0.841  0.021  1.000
  Fe17  Fe3+  0.202  0.841  0.221  1.000
  Fe17  Fe3+  0.202  0.841  0.421  1.000
  Fe17  Fe3+  0.202  0.841  0.621  1.000
  Fe17  Fe3+  0.202  0.841  0.821  1.000
  Fe17  Fe3+  0.402  0.041  0.021  1.000
  Fe17  Fe3+  0.402  0.041  0.221  1.000
  Fe17  Fe3+  0.402  0.041  0.421  1.000
  Fe17  Fe3+  0.402  0.041  0.621  1.000
  Fe17  Fe3+  0.402  0.041  0.821  1.000
  Fe17  Fe3+  0.402  0.241  0.021  1.000
  Fe17  Fe3+  0.402  0.241  0.221  1.000
  Fe17  Fe3+  0.402  0.241  0.421  1.000
  Fe17  Fe3+  0.402  0.241  0.621  1.000
  Fe17  Fe3+  0.402  0.241  0.821  1.000
  Fe17  Fe3+  0.402  0.441  0.021  1.000
  Fe17  Fe3+  0.402  0.441  0.221  1.000
  Fe17  Fe3+  0.402  0.441  0.421  1.000
  Fe17  Fe3+  0.402  0.441  0.621  1.000
  Fe17  Fe3+  0.402  0.441  0.821  1.000
  Fe17  Fe3+  0.402  0.641  0.021  1.000
  Fe17  Fe3+  0.402  0.641  0.221  1.000
  Fe17  Fe3+  0.402  0.641  0.421  1.000
  Fe17  Fe3+  0.402  0.641  0.621  1.000
  Fe17  Fe3+  0.402  0.641  0.821  1.000
  Fe17  Fe3+  0.402  0.841  0.021  1.000
  Fe17  Fe3+  0.402  0.841  0.221  1.000
  Fe17  Fe3+  0.402  0.841  0.421  1.000
  Fe17  Fe3+  0.402  0.841  0.621  1.000
  Fe17  Fe3+  0.402  0.841  0.821  1.000
  Fe17  Fe3+  0.602  0.041  0.021  1.000
  Fe17  Fe3+  0.602  0.041  0.221  1.000
  Fe17  Fe3+  0.602  0.041  0.421  1.000
  Fe17  Fe3+  0.602  0.041  0.621  1.000
  Fe17  Fe3+  0.602  0.041  0.821  1.000
  Fe17  Fe3+  0.602  0.241  0.021  1.000
  Fe17  Fe3+  0.602  0.241  0.221  1.000
  Fe17  Fe3+  0.602  0.241  0.421  1.000
  Fe17  Fe3+  0.602  0.241  0.621  1.000
  Fe17  Fe3+  0.602  0.241  0.821  1.000
  Fe17  Fe3+  0.602  0.441  0.021  1.000
  Fe17  Fe3+  0.602  0.441  0.221  1.000
  Fe17  Fe3+  0.602  0.441  0.421  1.000
  Fe17  Fe3+  0.602  0.441  0.621  1.000
  Fe17  Fe3+  0.602  0.441  0.821  1.000
  Fe17  Fe3+  0.602  0.641  0.021  1.000
  Fe17  Fe3+  0.602  0.641  0.221  1.000
  Fe17  Fe3+  0.602  0.641  0.421  1.000
  Fe17  Fe3+  0.602  0.641  0.621  1.000
  Fe17  Fe3+  0.602  0.641  0.821  1.000
  Fe17  Fe3+  0.602  0.841  0.021  1.000
  Fe17  Fe3+  0.602  0.841  0.221  1.000
  Fe17  Fe3+  0.602  0.841  0.421  1.000
  Fe17  Fe3+  0.602  0.841  0.621  1.000
  Fe17  Fe3+  0.602  0.841  0.821  1.000
  Fe17  Fe3+  0.802  0.041  0.021  1.000
  Fe17  Fe3+  0.802  0.041  0.221  1.000
  Fe17  Fe3+  0.802  0.041  0.421  1.000
  Fe17  Fe3+  0.802  0.041  0.621  1.000
  Fe17  Fe3+  0.802  0.041  0.821  1.000
  Fe17  Fe3+  0.802  0.241  0.021  1.000
  Fe17  Fe3+  0.802  0.241  0.221  1.000
  Fe17  Fe3+  0.802  0.241  0.421  1.000
  Fe17  Fe3+  0.802  0.241  0.621  1.000
  Fe17  Fe3+  0.802  0.241  0.821  1.000
  Fe17  Fe3+  0.802  0.441  0.021  1.000
  Fe17  Fe3+  0.802  0.441  0.221  1.000
  Fe17  Fe3+  0.802  0.441  0.421  1.000
  Fe17  Fe3+  0.802  0.441  0.621  1.000
  Fe17  Fe3+  0.802  0.441  0.821  1.000
  Fe17  Fe3+  0.802  0.641  0.021  1.000
  Fe17  Fe3+  0.802  0.641  0.221  1.000
  Fe17  Fe3+  0.802  0.641  0.421  1.000
  Fe17  Fe3+  0.802  0.641  0.621  1.000
  Fe17  Fe3+  0.802  0.641  0.821  1.000
  Fe17  Fe3+  0.802  0.841  0.021  1.000
  Fe17  Fe3+  0.802  0.841  0.221  1.000
  Fe17  Fe3+  0.802  0.841  0.421  1.000
  Fe17  Fe3+  0.802  0.841  0.621  1.000
  Fe17  Fe3+  0.802  0.841  0.821  1.000
  Fe18  Fe3+  0.198  0.059  0.121  1.000
  Fe18  Fe3+  0.198  0.059  0.321  1.000
  Fe18  Fe3+  0.198  0.059  0.521  1.000
  Fe18  Fe3+  0.198  0.059  0.721  1.000
  Fe18  Fe3+  0.198  0.059  0.921  1.000
  Fe18  Fe3+  0.198  0.259  0.121  1.000
  Fe18  Fe3+  0.198  0.259  0.321  1.000
  Fe18  Fe3+  0.198  0.259  0.521  1.000
  Fe18  Fe3+  0.198  0.259  0.721  1.000
  Fe18  Fe3+  0.198  0.259  0.921  1.000
  Fe18  Fe3+  0.198  0.459  0.121  1.000
  Fe18  Fe3+  0.198  0.459  0.321  1.000
  Fe18  Fe3+  0.198  0.459  0.521  1.000
  Fe18  Fe3+  0.198  0.459  0.721  1.000
  Fe18  Fe3+  0.198  0.459  0.921  1.000
  Fe18  Fe3+  0.198  0.659  0.121  1.000
  Fe18  Fe3+  0.198  0.659  0.321  1.000
  Fe18  Fe3+  0.198  0.659  0.521  1.000
  Fe18  Fe3+  0.198  0.659  0.721  1.000
  Fe18  Fe3+  0.198  0.659  0.921  1.000
  Fe18  Fe3+  0.198  0.859  0.121  1.000
  Fe18  Fe3+  0.198  0.859  0.321  1.000
  Fe18  Fe3+  0.198  0.859  0.521  1.000
  Fe18  Fe3+  0.198  0.859  0.721  1.000
  Fe18  Fe3+  0.198  0.859  0.921  1.000
  Fe18  Fe3+  0.398  0.059  0.121  1.000
  Fe18  Fe3+  0.398  0.059  0.321  1.000
  Fe18  Fe3+  0.398  0.059  0.521  1.000
  Fe18  Fe3+  0.398  0.059  0.721  1.000
  Fe18  Fe3+  0.398  0.059  0.921  1.000
  Fe18  Fe3+  0.398  0.259  0.121  1.000
  Fe18  Fe3+  0.398  0.259  0.321  1.000
  Fe18  Fe3+  0.398  0.259  0.521  1.000
  Fe18  Fe3+  0.398  0.259  0.721  1.000
  Fe18  Fe3+  0.398  0.259  0.921  1.000
  Fe18  Fe3+  0.398  0.459  0.121  1.000
  Fe18  Fe3+  0.398  0.459  0.321  1.000
  Fe18  Fe3+  0.398  0.459  0.521  1.000
  Fe18  Fe3+  0.398  0.459  0.721  1.000
  Fe18  Fe3+  0.398  0.459  0.921  1.000
  Fe18  Fe3+  0.398  0.659  0.121  1.000
  Fe18  Fe3+  0.398  0.659  0.321  1.000
  Fe18  Fe3+  0.398  0.659  0.521  1.000
  Fe18  Fe3+  0.398  0.659  0.721  1.000
  Fe18  Fe3+  0.398  0.659  0.921  1.000
  Fe18  Fe3+  0.398  0.859  0.121  1.000
  Fe18  Fe3+  0.398  0.859  0.321  1.000
  Fe18  Fe3+  0.398  0.859  0.521  1.000
  Fe18  Fe3+  0.398  0.859  0.721  1.000
  Fe18  Fe3+  0.398  0.859  0.921  1.000
  Fe18  Fe3+  0.598  0.059  0.121  1.000
  Fe18  Fe3+  0.598  0.059  0.321  1.000
  Fe18  Fe3+  0.598  0.059  0.521  1.000
  Fe18  Fe3+  0.598  0.059  0.721  1.000
  Fe18  Fe3+  0.598  0.059  0.921  1.000
  Fe18  Fe3+  0.598  0.259  0.121  1.000
  Fe18  Fe3+  0.598  0.259  0.321  1.000
  Fe18  Fe3+  0.598  0.259  0.521  1.000
  Fe18  Fe3+  0.598  0.259  0.721  1.000
  Fe18  Fe3+  0.598  0.259  0.921  1.000
  Fe18  Fe3+  0.598  0.459  0.121  1.000
  Fe18  Fe3+  0.598  0.459  0.321  1.000
  Fe18  Fe3+  0.598  0.459  0.521  1.000
  Fe18  Fe3+  0.598  0.459  0.721  1.000
  Fe18  Fe3+  0.598  0.459  0.921  1.000
  Fe18  Fe3+  0.598  0.659  0.121  1.000
  Fe18  Fe3+  0.598  0.659  0.321  1.000
  Fe18  Fe3+  0.598  0.659  0.521  1.000
  Fe18  Fe3+  0.598  0.659  0.721  1.000
  Fe18  Fe3+  0.598  0.659  0.921  1.000
  Fe18  Fe3+  0.598  0.859  0.121  1.000
  Fe18  Fe3+  0.598  0.859  0.321  1.000
  Fe18  Fe3+  0.598  0.859  0.521  1.000
  Fe18  Fe3+  0.598  0.859  0.721  1.000
  Fe18  Fe3+  0.598  0.859  0.921  1.000
  Fe18  Fe3+  0.798  0.059  0.121  1.000
  Fe18  Fe3+  0.798  0.059  0.321  1.000
  Fe18  Fe3+  0.798  0.059  0.521  1.000
  Fe18  Fe3+  0.798  0.059  0.721  1.000
  Fe18  Fe3+  0.798  0.059  0.921  1.000
  Fe18  Fe3+  0.798  0.259  0.121  1.000
  Fe18  Fe3+  0.798  0.259  0.321  1.000
  Fe18  Fe3+  0.798  0.259  0.521  1.000
  Fe18  Fe3+  0.798  0.259  0.721  1.000
  Fe18  Fe3+  0.798  0.259  0.921  1.000
  Fe18  Fe3+  0.798  0.459  0.121  1.000
  Fe18  Fe3+  0.798  0.459  0.321  1.000
  Fe18  Fe3+  0.798  0.459  0.521  1.000
  Fe18  Fe3+  0.798  0.459  0.721  1.000
  Fe18  Fe3+  0.798  0.459  0.921  1.000
  Fe18  Fe3+  0.798  0.659  0.121  1.000
  Fe18  Fe3+  0.798  0.659  0.321  1.000
  Fe18  Fe3+  0.798  0.659  0.521  1.000
  Fe18  Fe3+  0.798  0.659  0.721  1.000
  Fe18  Fe3+  0.798  0.659  0.921  1.000
  Fe18  Fe3+  0.798  0.859  0.121  1.000
  Fe18  Fe3+  0.798  0.859  0.321  1.000
  Fe18  Fe3+  0.798  0.859  0.521  1.000
  Fe18  Fe3+  0.798  0.859  0.721  1.000
  Fe18  Fe3+  0.798  0.859  0.921  1.000
  Fe18  Fe3+  0.998  0.059  0.121  1.000
  Fe18  Fe3+  0.998  0.059  0.321  1.000
  Fe18  Fe3+  0.998  0.059  0.521  1.000
  Fe18  Fe3+  0.998  0.059  0.721  1.000
  Fe18  Fe3+  0.998  0.059  0.921  1.000
  Fe18  Fe3+  0.998  0.259  0.121  1.000
  Fe18  Fe3+  0.998  0.259  0.321  1.000
  Fe18  Fe3+  0.998  0.259  0.521  1.000
  Fe18  Fe3+  0.998  0.259  0.721  1.000
  Fe18  Fe3+  0.998  0.259  0.921  1.000
  Fe18  Fe3+  0.998  0.459  0.121  1.000
  Fe18  Fe3+  0.998  0.459  0.321  1.000
  Fe18  Fe3+  0.998  0.459  0.521  1.000
  Fe18  Fe3+  0.998  0.459  0.721  1.000
  Fe18  Fe3+  0.998  0.459  0.921  1.000
  Fe18  Fe3+  0.998  0.659  0.121  1.000
  Fe18  Fe3+  0.998  0.659  0.321  1.000
  Fe18  Fe3+  0.998  0.659  0.521  1.000
  Fe18  Fe3+  0.998  0.659  0.721  1.000
  Fe18  Fe3+  0.998  0.659  0.921  1.000
  Fe18  Fe3+  0.998  0.859  0.121  1.000
  Fe18  Fe3+  0.998  0.859  0.321  1.000
  Fe18  Fe3+  0.998  0.859  0.521  1.000
  Fe18  Fe3+  0.998  0.859  0.721  1.000
  Fe18  Fe3+  0.998  0.859  0.921  1.000
  Fe19  Fe3+  0.198  0.141  0.079  1.000
  Fe19  Fe3+  0.198  0.141  0.279  1.000
  Fe19  Fe3+  0.198  0.141  0.479  1.000
  Fe19  Fe3+  0.198  0.141  0.679  1.000
  Fe19  Fe3+  0.198  0.141  0.879  1.000
  Fe19  Fe3+  0.198  0.341  0.079  1.000
  Fe19  Fe3+  0.198  0.341  0.279  1.000
  Fe19  Fe3+  0.198  0.341  0.479  1.000
  Fe19  Fe3+  0.198  0.341  0.679  1.000
  Fe19  Fe3+  0.198  0.341  0.879  1.000
  Fe19  Fe3+  0.198  0.541  0.079  1.000
  Fe19  Fe3+  0.198  0.541  0.279  1.000
  Fe19  Fe3+  0.198  0.541  0.479  1.000
  Fe19  Fe3+  0.198  0.541  0.679  1.000
  Fe19  Fe3+  0.198  0.541  0.879  1.000
  Fe19  Fe3+  0.198  0.741  0.079  1.000
  Fe19  Fe3+  0.198  0.741  0.279  1.000
  Fe19  Fe3+  0.198  0.741  0.479  1.000
  Fe19  Fe3+  0.198  0.741  0.679  1.000
  Fe19  Fe3+  0.198  0.741  0.879  1.000
  Fe19  Fe3+  0.198  0.941  0.079  1.000
  Fe19  Fe3+  0.198  0.941  0.279  1.000
  Fe19  Fe3+  0.198  0.941  0.479  1.000
  Fe19  Fe3+  0.198  0.941  0.679  1.000
  Fe19  Fe3+  0.198  0.941  0.879  1.000
  Fe19  Fe3+  0.398  0.141  0.079  1.000
  Fe19  Fe3+  0.398  0.141  0.279  1.000
  Fe19  Fe3+  0.398  0.141  0.479  1.000
  Fe19  Fe3+  0.398  0.141  0.679  1.000
  Fe19  Fe3+  0.398  0.141  0.879  1.000
  Fe19  Fe3+  0.398  0.341  0.079  1.000
  Fe19  Fe3+  0.398  0.341  0.279  1.000
  Fe19  Fe3+  0.398  0.341  0.479  1.000
  Fe19  Fe3+  0.398  0.341  0.679  1.000
  Fe19  Fe3+  0.398  0.341  0.879  1.000
  Fe19  Fe3+  0.398  0.541  0.079  1.000
  Fe19  Fe3+  0.398  0.541  0.279  1.000
  Fe19  Fe3+  0.398  0.541  0.479  1.000
  Fe19  Fe3+  0.398  0.541  0.679  1.000
  Fe19  Fe3+  0.398  0.541  0.879  1.000
  Fe19  Fe3+  0.398  0.741  0.079  1.000
  Fe19  Fe3+  0.398  0.741  0.279  1.000
  Fe19  Fe3+  0.398  0.741  0.479  1.000
  Fe19  Fe3+  0.398  0.741  0.679  1.000
  Fe19  Fe3+  0.398  0.741  0.879  1.000
  Fe19  Fe3+  0.398  0.941  0.079  1.000
  Fe19  Fe3+  0.398  0.941  0.279  1.000
  Fe19  Fe3+  0.398  0.941  0.479  1.000
  Fe19  Fe3+  0.398  0.941  0.679  1.000
  Fe19  Fe3+  0.398  0.941  0.879  1.000
  Fe19  Fe3+  0.598  0.141  0.079  1.000
  Fe19  Fe3+  0.598  0.141  0.279  1.000
  Fe19  Fe3+  0.598  0.141  0.479  1.000
  Fe19  Fe3+  0.598  0.141  0.679  1.000
  Fe19  Fe3+  0.598  0.141  0.879  1.000
  Fe19  Fe3+  0.598  0.341  0.079  1.000
  Fe19  Fe3+  0.598  0.341  0.279  1.000
  Fe19  Fe3+  0.598  0.341  0.479  1.000
  Fe19  Fe3+  0.598  0.341  0.679  1.000
  Fe19  Fe3+  0.598  0.341  0.879  1.000
  Fe19  Fe3+  0.598  0.541  0.079  1.000
  Fe19  Fe3+  0.598  0.541  0.279  1.000
  Fe19  Fe3+  0.598  0.541  0.479  1.000
  Fe19  Fe3+  0.598  0.541  0.679  1.000
  Fe19  Fe3+  0.598  0.541  0.879  1.000
  Fe19  Fe3+  0.598  0.741  0.079  1.000
  Fe19  Fe3+  0.598  0.741  0.279  1.000
  Fe19  Fe3+  0.598  0.741  0.479  1.000
  Fe19  Fe3+  0.598  0.741  0.679  1.000
  Fe19  Fe3+  0.598  0.741  0.879  1.000
  Fe19  Fe3+  0.598  0.941  0.079  1.000
  Fe19  Fe3+  0.598  0.941  0.279  1.000
  Fe19  Fe3+  0.598  0.941  0.479  1.000
  Fe19  Fe3+  0.598  0.941  0.679  1.000
  Fe19  Fe3+  0.598  0.941  0.879  1.000
  Fe19  Fe3+  0.798  0.141  0.079  1.000
  Fe19  Fe3+  0.798  0.141  0.279  1.000
  Fe19  Fe3+  0.798  0.141  0.479  1.000
  Fe19  Fe3+  0.798  0.141  0.679  1.000
  Fe19  Fe3+  0.798  0.141  0.879  1.000
  Fe19  Fe3+  0.798  0.341  0.079  1.000
  Fe19  Fe3+  0.798  0.341  0.279  1.000
  Fe19  Fe3+  0.798  0.341  0.479  1.000
  Fe19  Fe3+  0.798  0.341  0.679  1.000
  Fe19  Fe3+  0.798  0.341  0.879  1.000
  Fe19  Fe3+  0.798  0.541  0.079  1.000
  Fe19  Fe3+  0.798  0.541  0.279  1.000
  Fe19  Fe3+  0.798  0.541  0.479  1.000
  Fe19  Fe3+  0.798  0.541  0.679  1.000
  Fe19  Fe3+  0.798  0.541  0.879  1.000
  Fe19  Fe3+  0.798  0.741  0.079  1.000
  Fe19  Fe3+  0.798  0.741  0.279  1.000
  Fe19  Fe3+  0.798  0.741  0.479  1.000
  Fe19  Fe3+  0.798  0.741  0.679  1.000
  Fe19  Fe3+  0.798  0.741  0.879  1.000
  Fe19  Fe3+  0.798  0.941  0.079  1.000
  Fe19  Fe3+  0.798  0.941  0.279  1.000
  Fe19  Fe3+  0.798  0.941  0.479  1.000
  Fe19  Fe3+  0.798  0.941  0.679  1.000
  Fe19  Fe3+  0.798  0.941  0.879  1.000
  Fe19  Fe3+  0.998  0.141  0.079  1.000
  Fe19  Fe3+  0.998  0.141  0.279  1.000
  Fe19  Fe3+  0.998  0.141  0.479  1.000
  Fe19  Fe3+  0.998  0.141  0.679  1.000
  Fe19  Fe3+  0.998  0.141  0.879  1.000
  Fe19  Fe3+  0.998  0.341  0.079  1.000
  Fe19  Fe3+  0.998  0.341  0.279  1.000
  Fe19  Fe3+  0.998  0.341  0.479  1.000
  Fe19  Fe3+  0.998  0.341  0.679  1.000
  Fe19  Fe3+  0.998  0.341  0.879  1.000
  Fe19  Fe3+  0.998  0.541  0.079  1.000
  Fe19  Fe3+  0.998  0.541  0.279  1.000
  Fe19  Fe3+  0.998  0.541  0.479  1.000
  Fe19  Fe3+  0.998  0.541  0.679  1.000
  Fe19  Fe3+  0.998  0.541  0.879  1.000
  Fe19  Fe3+  0.998  0.741  0.079  1.000
  Fe19  Fe3+  0.998  0.741  0.279  1.000
  Fe19  Fe3+  0.998  0.741  0.479  1.000
  Fe19  Fe3+  0.998  0.741  0.679  1.000
  Fe19  Fe3+  0.998  0.741  0.879  1.000
  Fe19  Fe3+  0.998  0.941  0.079  1.000
  Fe19  Fe3+  0.998  0.941  0.279  1.000
  Fe19  Fe3+  0.998  0.941  0.479  1.000
  Fe19  Fe3+  0.998  0.941  0.679  1.000
  Fe19  Fe3+  0.998  0.941  0.879  1.000
  Li5  Li1+  0.004  0.000  0.000  0.000
  Li9  Li1+  0.196  0.100  0.100  0.000
  Li17  Li1+  0.104  -0.000  0.100  0.000
  Li18  Li1+  0.096  0.100  0.000  0.000
  Li24  Li1+  0.133  0.196  0.146  0.000
  Li33  Li1+  0.004  -0.000  0.200  0.000
  Li37  Li1+  0.196  0.100  0.300  0.000
  Li45  Li1+  0.104  -0.000  0.300  0.000
  Li46  Li1+  0.096  0.100  0.200  0.000
  Li51  Li1+  0.133  0.004  0.254  0.000
  Li61  Li1+  0.004  -0.000  0.400  0.000
  Li65  Li1+  0.196  0.100  0.500  0.000
  Li73  Li1+  0.104  -0.000  0.500  0.000
  Li74  Li1+  0.096  0.100  0.400  0.000
  Li79  Li1+  0.133  0.004  0.454  0.000
  Li89  Li1+  0.004  -0.000  0.600  0.000
  Li92  Li1+  0.067  0.104  0.646  0.000
  Li93  Li1+  0.196  0.100  0.700  0.000
  Li101  Li1+  0.104  -0.000  0.700  0.000
  Li102  Li1+  0.096  0.100  0.600  0.000
  Li107  Li1+  0.133  0.004  0.654  0.000
  Li108  Li1+  0.133  0.196  0.746  0.000
  Li117  Li1+  0.004  -0.000  0.800  0.000
  Li121  Li1+  0.196  0.100  0.900  0.000
  Li129  Li1+  0.104  -0.000  0.900  0.000
  Li130  Li1+  0.096  0.100  0.800  0.000
  Li145  Li1+  0.004  0.200  0.000  0.000
  Li149  Li1+  0.196  0.300  0.100  0.000
  Li152  Li1+  0.067  0.296  0.154  0.000
  Li157  Li1+  0.104  0.200  0.100  0.000
  Li158  Li1+  0.096  0.300  0.000  0.000
  Li163  Li1+  0.133  0.204  0.054  0.000
  Li173  Li1+  0.004  0.200  0.200  0.000
  Li177  Li1+  0.196  0.300  0.300  0.000
  Li186  Li1+  0.096  0.300  0.200  0.000
  Li191  Li1+  0.133  0.204  0.254  0.000
  Li192  Li1+  0.133  0.396  0.346  0.000
  Li201  Li1+  0.004  0.200  0.400  0.000
  Li204  Li1+  0.067  0.304  0.446  0.000
  Li205  Li1+  0.196  0.300  0.500  0.000
  Li208  Li1+  0.067  0.296  0.554  0.000
  Li213  Li1+  0.104  0.200  0.500  0.000
  Li214  Li1+  0.096  0.300  0.400  0.000
  Li220  Li1+  0.133  0.396  0.546  0.000
  Li229  Li1+  0.004  0.200  0.600  0.000
  Li233  Li1+  0.196  0.300  0.700  0.000
  Li236  Li1+  0.067  0.296  0.754  0.000
  Li241  Li1+  0.104  0.200  0.700  0.000
  Li242  Li1+  0.096  0.300  0.600  0.000
  Li257  Li1+  0.004  0.200  0.800  0.000
  Li261  Li1+  0.196  0.300  0.900  0.000
  Li264  Li1+  0.067  0.296  0.954  0.000
  Li269  Li1+  0.104  0.200  0.900  0.000
  Li270  Li1+  0.096  0.300  0.800  0.000
  Li276  Li1+  0.133  0.396  0.946  0.000
  Li285  Li1+  0.004  0.400  0.000  0.000
  Li288  Li1+  0.067  0.504  0.046  0.000
  Li289  Li1+  0.196  0.500  0.100  0.000
  Li297  Li1+  0.104  0.400  0.100  0.000
  Li298  Li1+  0.096  0.500  0.000  0.000
  Li304  Li1+  0.133  0.596  0.146  0.000
  Li313  Li1+  0.004  0.400  0.200  0.000
  Li316  Li1+  0.067  0.504  0.246  0.000
  Li317  Li1+  0.196  0.500  0.300  0.000
  Li325  Li1+  0.104  0.400  0.300  0.000
  Li326  Li1+  0.096  0.500  0.200  0.000
  Li331  Li1+  0.133  0.404  0.254  0.000
  Li341  Li1+  0.004  0.400  0.400  0.000
  Li345  Li1+  0.196  0.500  0.500  0.000
  Li348  Li1+  0.067  0.496  0.554  0.000
  Li353  Li1+  0.104  0.400  0.500  0.000
  Li354  Li1+  0.096  0.500  0.400  0.000
  Li369  Li1+  0.004  0.400  0.600  0.000
  Li372  Li1+  0.067  0.504  0.646  0.000
  Li373  Li1+  0.196  0.500  0.700  0.000
  Li376  Li1+  0.067  0.496  0.754  0.000
  Li381  Li1+  0.104  0.400  0.700  0.000
  Li382  Li1+  0.096  0.500  0.600  0.000
  Li397  Li1+  0.004  0.400  0.800  0.000
  Li400  Li1+  0.067  0.504  0.846  0.000
  Li401  Li1+  0.196  0.500  0.900  0.000
  Li404  Li1+  0.067  0.496  0.954  0.000
  Li409  Li1+  0.104  0.400  0.900  0.000
  Li410  Li1+  0.096  0.500  0.800  0.000
  Li415  Li1+  0.133  0.404  0.854  0.000
  Li416  Li1+  0.133  0.596  0.946  0.000
  Li425  Li1+  0.004  0.600  0.000  0.000
  Li429  Li1+  0.196  0.700  0.100  0.000
  Li432  Li1+  0.067  0.696  0.154  0.000
  Li437  Li1+  0.104  0.600  0.100  0.000
  Li438  Li1+  0.096  0.700  0.000  0.000
  Li444  Li1+  0.133  0.796  0.146  0.000
  Li453  Li1+  0.004  0.600  0.200  0.000
  Li457  Li1+  0.196  0.700  0.300  0.000
  Li460  Li1+  0.067  0.696  0.354  0.000
  Li465  Li1+  0.104  0.600  0.300  0.000
  Li466  Li1+  0.096  0.700  0.200  0.000
  Li471  Li1+  0.133  0.604  0.254  0.000
  Li472  Li1+  0.133  0.796  0.346  0.000
  Li481  Li1+  0.004  0.600  0.400  0.000
  Li484  Li1+  0.067  0.704  0.446  0.000
  Li485  Li1+  0.196  0.700  0.500  0.000
  Li488  Li1+  0.067  0.696  0.554  0.000
  Li493  Li1+  0.104  0.600  0.500  0.000
  Li494  Li1+  0.096  0.700  0.400  0.000
  Li509  Li1+  0.004  0.600  0.600  0.000
  Li512  Li1+  0.067  0.704  0.646  0.000
  Li513  Li1+  0.196  0.700  0.700  0.000
  Li521  Li1+  0.104  0.600  0.700  0.000
  Li537  Li1+  0.004  0.600  0.800  0.000
  Li540  Li1+  0.067  0.704  0.846  0.000
  Li541  Li1+  0.196  0.700  0.900  0.000
  Li544  Li1+  0.067  0.696  0.954  0.000
  Li549  Li1+  0.104  0.600  0.900  0.000
  Li550  Li1+  0.096  0.700  0.800  0.000
  Li565  Li1+  0.004  0.800  0.000  0.000
  Li568  Li1+  0.067  0.904  0.046  0.000
  Li569  Li1+  0.196  0.900  0.100  0.000
  Li577  Li1+  0.104  0.800  0.100  0.000
  Li578  Li1+  0.096  0.900  0.000  0.000
  Li584  Li1+  0.133  0.996  0.146  0.000
  Li593  Li1+  0.004  0.800  0.200  0.000
  Li596  Li1+  0.067  0.904  0.246  0.000
  Li597  Li1+  0.196  0.900  0.300  0.000
  Li600  Li1+  0.067  0.896  0.354  0.000
  Li605  Li1+  0.104  0.800  0.300  0.000
  Li606  Li1+  0.096  0.900  0.200  0.000
  Li611  Li1+  0.133  0.804  0.254  0.000
  Li621  Li1+  0.004  0.800  0.400  0.000
  Li624  Li1+  0.067  0.904  0.446  0.000
  Li625  Li1+  0.196  0.900  0.500  0.000
  Li633  Li1+  0.104  0.800  0.500  0.000
  Li634  Li1+  0.096  0.900  0.400  0.000
  Li639  Li1+  0.133  0.804  0.454  0.000
  Li640  Li1+  0.133  0.996  0.546  0.000
  Li649  Li1+  0.004  0.800  0.600  0.000
  Li653  Li1+  0.196  0.900  0.700  0.000
  Li656  Li1+  0.067  0.896  0.754  0.000
  Li661  Li1+  0.104  0.800  0.700  0.000
  Li662  Li1+  0.096  0.900  0.600  0.000
  Li677  Li1+  0.004  0.800  0.800  0.000
  Li681  Li1+  0.196  0.900  0.900  0.000
  Li689  Li1+  0.104  0.800  0.900  0.000
  Li690  Li1+  0.096  0.900  0.800  0.000
  Li705  Li1+  0.204  0.000  0.000  0.000
  Li709  Li1+  0.396  0.100  0.100  0.000
  Li712  Li1+  0.267  0.096  0.154  0.000
  Li717  Li1+  0.304  -0.000  0.100  0.000
  Li718  Li1+  0.296  0.100  0.000  0.000
  Li723  Li1+  0.333  0.004  0.054  0.000
  Li733  Li1+  0.204  -0.000  0.200  0.000
  Li737  Li1+  0.396  0.100  0.300  0.000
  Li740  Li1+  0.267  0.096  0.354  0.000
  Li745  Li1+  0.304  -0.000  0.300  0.000
  Li746  Li1+  0.296  0.100  0.200  0.000
  Li751  Li1+  0.333  0.004  0.254  0.000
  Li752  Li1+  0.333  0.196  0.346  0.000
  Li761  Li1+  0.204  -0.000  0.400  0.000
  Li765  Li1+  0.396  0.100  0.500  0.000
  Li768  Li1+  0.267  0.096  0.554  0.000
  Li773  Li1+  0.304  -0.000  0.500  0.000
  Li774  Li1+  0.296  0.100  0.400  0.000
  Li789  Li1+  0.204  -0.000  0.600  0.000
  Li793  Li1+  0.396  0.100  0.700  0.000
  Li801  Li1+  0.304  -0.000  0.700  0.000
  Li802  Li1+  0.296  0.100  0.600  0.000
  Li817  Li1+  0.204  -0.000  0.800  0.000
  Li820  Li1+  0.267  0.104  0.846  0.000
  Li821  Li1+  0.396  0.100  0.900  0.000
  Li829  Li1+  0.304  -0.000  0.900  0.000
  Li830  Li1+  0.296  0.100  0.800  0.000
  Li845  Li1+  0.204  0.200  0.000  0.000
  Li849  Li1+  0.396  0.300  0.100  0.000
  Li857  Li1+  0.304  0.200  0.100  0.000
  Li858  Li1+  0.296  0.300  0.000  0.000
  Li873  Li1+  0.204  0.200  0.200  0.000
  Li877  Li1+  0.396  0.300  0.300  0.000
  Li885  Li1+  0.304  0.200  0.300  0.000
  Li886  Li1+  0.296  0.300  0.200  0.000
  Li891  Li1+  0.333  0.204  0.254  0.000
  Li901  Li1+  0.204  0.200  0.400  0.000
  Li905  Li1+  0.396  0.300  0.500  0.000
  Li908  Li1+  0.267  0.296  0.554  0.000
  Li913  Li1+  0.304  0.200  0.500  0.000
  Li914  Li1+  0.296  0.300  0.400  0.000
  Li919  Li1+  0.333  0.204  0.454  0.000
  Li920  Li1+  0.333  0.396  0.546  0.000
  Li929  Li1+  0.204  0.200  0.600  0.000
  Li932  Li1+  0.267  0.304  0.646  0.000
  Li933  Li1+  0.396  0.300  0.700  0.000
  Li941  Li1+  0.304  0.200  0.700  0.000
  Li942  Li1+  0.296  0.300  0.600  0.000
  Li947  Li1+  0.333  0.204  0.654  0.000
  Li948  Li1+  0.333  0.396  0.746  0.000
  Li957  Li1+  0.204  0.200  0.800  0.000
  Li960  Li1+  0.267  0.304  0.846  0.000
  Li961  Li1+  0.396  0.300  0.900  0.000
  Li964  Li1+  0.267  0.296  0.954  0.000
  Li969  Li1+  0.304  0.200  0.900  0.000
  Li970  Li1+  0.296  0.300  0.800  0.000
  Li975  Li1+  0.333  0.204  0.854  0.000
  Li985  Li1+  0.204  0.400  0.000  0.000
  Li988  Li1+  0.267  0.504  0.046  0.000
  Li989  Li1+  0.396  0.500  0.100  0.000
  Li992  Li1+  0.267  0.496  0.154  0.000
  Li997  Li1+  0.304  0.400  0.100  0.000
  Li998  Li1+  0.296  0.500  0.000  0.000
  Li1003  Li1+  0.333  0.404  0.054  0.000
  Li1013  Li1+  0.204  0.400  0.200  0.000
  Li1016  Li1+  0.267  0.504  0.246  0.000
  Li1017  Li1+  0.396  0.500  0.300  0.000
  Li1020  Li1+  0.267  0.496  0.354  0.000
  Li1025  Li1+  0.304  0.400  0.300  0.000
  Li1026  Li1+  0.296  0.500  0.200  0.000
  Li1031  Li1+  0.333  0.404  0.254  0.000
  Li1041  Li1+  0.204  0.400  0.400  0.000
  Li1045  Li1+  0.396  0.500  0.500  0.000
  Li1048  Li1+  0.267  0.496  0.554  0.000
  Li1053  Li1+  0.304  0.400  0.500  0.000
  Li1054  Li1+  0.296  0.500  0.400  0.000
  Li1059  Li1+  0.333  0.404  0.454  0.000
  Li1060  Li1+  0.333  0.596  0.546  0.000
  Li1069  Li1+  0.204  0.400  0.600  0.000
  Li1072  Li1+  0.267  0.504  0.646  0.000
  Li1073  Li1+  0.396  0.500  0.700  0.000
  Li1081  Li1+  0.304  0.400  0.700  0.000
  Li1082  Li1+  0.296  0.500  0.600  0.000
  Li1097  Li1+  0.204  0.400  0.800  0.000
  Li1101  Li1+  0.396  0.500  0.900  0.000
  Li1109  Li1+  0.304  0.400  0.900  0.000
  Li1110  Li1+  0.296  0.500  0.800  0.000
  Li1115  Li1+  0.333  0.404  0.854  0.000
  Li1116  Li1+  0.333  0.596  0.946  0.000
  Li1125  Li1+  0.204  0.600  0.000  0.000
  Li1128  Li1+  0.267  0.704  0.046  0.000
  Li1129  Li1+  0.396  0.700  0.100  0.000
  Li1137  Li1+  0.304  0.600  0.100  0.000
  Li1138  Li1+  0.296  0.700  0.000  0.000
  Li1144  Li1+  0.333  0.796  0.146  0.000
  Li1153  Li1+  0.204  0.600  0.200  0.000
  Li1156  Li1+  0.267  0.704  0.246  0.000
  Li1157  Li1+  0.396  0.700  0.300  0.000
  Li1160  Li1+  0.267  0.696  0.354  0.000
  Li1165  Li1+  0.304  0.600  0.300  0.000
  Li1166  Li1+  0.296  0.700  0.200  0.000
  Li1172  Li1+  0.333  0.796  0.346  0.000
  Li1181  Li1+  0.204  0.600  0.400  0.000
  Li1185  Li1+  0.396  0.700  0.500  0.000
  Li1193  Li1+  0.304  0.600  0.500  0.000
  Li1194  Li1+  0.296  0.700  0.400  0.000
  Li1199  Li1+  0.333  0.604  0.454  0.000
  Li1200  Li1+  0.333  0.796  0.546  0.000
  Li1209  Li1+  0.204  0.600  0.600  0.000
  Li1213  Li1+  0.396  0.700  0.700  0.000
  Li1221  Li1+  0.304  0.600  0.700  0.000
  Li1222  Li1+  0.296  0.700  0.600  0.000
  Li1227  Li1+  0.333  0.604  0.654  0.000
  Li1237  Li1+  0.204  0.600  0.800  0.000
  Li1241  Li1+  0.396  0.700  0.900  0.000
  Li1249  Li1+  0.304  0.600  0.900  0.000
  Li1250  Li1+  0.296  0.700  0.800  0.000
  Li1256  Li1+  0.333  0.796  0.946  0.000
  Li1265  Li1+  0.204  0.800  0.000  0.000
  Li1269  Li1+  0.396  0.900  0.100  0.000
  Li1272  Li1+  0.267  0.896  0.154  0.000
  Li1277  Li1+  0.304  0.800  0.100  0.000
  Li1278  Li1+  0.296  0.900  0.000  0.000
  Li1283  Li1+  0.333  0.804  0.054  0.000
  Li1293  Li1+  0.204  0.800  0.200  0.000
  Li1297  Li1+  0.396  0.900  0.300  0.000
  Li1305  Li1+  0.304  0.800  0.300  0.000
  Li1306  Li1+  0.296  0.900  0.200  0.000
  Li1321  Li1+  0.204  0.800  0.400  0.000
  Li1325  Li1+  0.396  0.900  0.500  0.000
  Li1333  Li1+  0.304  0.800  0.500  0.000
  Li1334  Li1+  0.296  0.900  0.400  0.000
  Li1349  Li1+  0.204  0.800  0.600  0.000
  Li1353  Li1+  0.396  0.900  0.700  0.000
  Li1356  Li1+  0.267  0.896  0.754  0.000
  Li1361  Li1+  0.304  0.800  0.700  0.000
  Li1362  Li1+  0.296  0.900  0.600  0.000
  Li1377  Li1+  0.204  0.800  0.800  0.000
  Li1381  Li1+  0.396  0.900  0.900  0.000
  Li1384  Li1+  0.267  0.896  0.954  0.000
  Li1389  Li1+  0.304  0.800  0.900  0.000
  Li1390  Li1+  0.296  0.900  0.800  0.000
  Li1395  Li1+  0.333  0.804  0.854  0.000
  Li1396  Li1+  0.333  0.996  0.946  0.000
  Li1405  Li1+  0.404  0.000  0.000  0.000
  Li1409  Li1+  0.596  0.100  0.100  0.000
  Li1412  Li1+  0.467  0.096  0.154  0.000
  Li1417  Li1+  0.504  -0.000  0.100  0.000
  Li1418  Li1+  0.496  0.100  0.000  0.000
  Li1423  Li1+  0.533  0.004  0.054  0.000
  Li1424  Li1+  0.533  0.196  0.146  0.000
  Li1433  Li1+  0.404  -0.000  0.200  0.000
  Li1436  Li1+  0.467  0.104  0.246  0.000
  Li1437  Li1+  0.596  0.100  0.300  0.000
  Li1445  Li1+  0.504  -0.000  0.300  0.000
  Li1446  Li1+  0.496  0.100  0.200  0.000
  Li1451  Li1+  0.533  0.004  0.254  0.000
  Li1452  Li1+  0.533  0.196  0.346  0.000
  Li1461  Li1+  0.404  -0.000  0.400  0.000
  Li1465  Li1+  0.596  0.100  0.500  0.000
  Li1472  Li1+  0.469  0.167  0.560  0.000
  Li1473  Li1+  0.504  -0.000  0.500  0.000
  Li1474  Li1+  0.496  0.100  0.400  0.000
  Li1479  Li1+  0.533  0.004  0.454  0.000
  Li1480  Li1+  0.533  0.196  0.546  0.000
  Li1489  Li1+  0.404  -0.000  0.600  0.000
  Li1492  Li1+  0.467  0.104  0.646  0.000
  Li1493  Li1+  0.596  0.100  0.700  0.000
  Li1501  Li1+  0.504  -0.000  0.700  0.000
  Li1502  Li1+  0.496  0.100  0.600  0.000
  Li1508  Li1+  0.533  0.196  0.746  0.000
  Li1517  Li1+  0.404  -0.000  0.800  0.000
  Li1521  Li1+  0.596  0.100  0.900  0.000
  Li1529  Li1+  0.504  -0.000  0.900  0.000
  Li1530  Li1+  0.496  0.100  0.800  0.000
  Li1545  Li1+  0.404  0.200  0.000  0.000
  Li1549  Li1+  0.596  0.300  0.100  0.000
  Li1552  Li1+  0.467  0.296  0.154  0.000
  Li1557  Li1+  0.504  0.200  0.100  0.000
  Li1558  Li1+  0.496  0.300  0.000  0.000
  Li1564  Li1+  0.533  0.396  0.146  0.000
  Li1573  Li1+  0.404  0.200  0.200  0.000
  Li1576  Li1+  0.467  0.304  0.246  0.000
  Li1577  Li1+  0.596  0.300  0.300  0.000
  Li1580  Li1+  0.467  0.296  0.354  0.000
  Li1583  Li1+  0.469  0.233  0.240  0.000
  Li1585  Li1+  0.504  0.200  0.300  0.000
  Li1586  Li1+  0.496  0.300  0.200  0.000
  Li1591  Li1+  0.533  0.204  0.254  0.000
  Li1592  Li1+  0.533  0.396  0.346  0.000
  Li1601  Li1+  0.404  0.200  0.400  0.000
  Li1605  Li1+  0.596  0.300  0.500  0.000
  Li1608  Li1+  0.467  0.296  0.554  0.000
  Li1613  Li1+  0.504  0.200  0.500  0.000
  Li1614  Li1+  0.496  0.300  0.400  0.000
  Li1620  Li1+  0.533  0.396  0.546  0.000
  Li1629  Li1+  0.404  0.200  0.600  0.000
  Li1633  Li1+  0.596  0.300  0.700  0.000
  Li1641  Li1+  0.504  0.200  0.700  0.000
  Li1648  Li1+  0.533  0.396  0.746  0.000
  Li1657  Li1+  0.404  0.200  0.800  0.000
  Li1660  Li1+  0.467  0.304  0.846  0.000
  Li1661  Li1+  0.596  0.300  0.900  0.000
  Li1664  Li1+  0.467  0.296  0.954  0.000
  Li1669  Li1+  0.504  0.200  0.900  0.000
  Li1670  Li1+  0.496  0.300  0.800  0.000
  Li1675  Li1+  0.533  0.204  0.854  0.000
  Li1676  Li1+  0.533  0.396  0.946  0.000
  Li1685  Li1+  0.404  0.400  0.000  0.000
  Li1689  Li1+  0.596  0.500  0.100  0.000
  Li1697  Li1+  0.504  0.400  0.100  0.000
  Li1698  Li1+  0.496  0.500  0.000  0.000
  Li1713  Li1+  0.404  0.400  0.200  0.000
  Li1717  Li1+  0.596  0.500  0.300  0.000
  Li1720  Li1+  0.467  0.496  0.354  0.000
  Li1725  Li1+  0.504  0.400  0.300  0.000
  Li1726  Li1+  0.496  0.500  0.200  0.000
  Li1731  Li1+  0.533  0.404  0.254  0.000
  Li1741  Li1+  0.404  0.400  0.400  0.000
  Li1744  Li1+  0.467  0.504  0.446  0.000
  Li1745  Li1+  0.596  0.500  0.500  0.000
  Li1748  Li1+  0.467  0.496  0.554  0.000
  Li1753  Li1+  0.504  0.400  0.500  0.000
  Li1754  Li1+  0.496  0.500  0.400  0.000
  Li1769  Li1+  0.404  0.400  0.600  0.000
  Li1772  Li1+  0.467  0.504  0.646  0.000
  Li1773  Li1+  0.596  0.500  0.700  0.000
  Li1776  Li1+  0.467  0.496  0.754  0.000
  Li1781  Li1+  0.504  0.400  0.700  0.000
  Li1787  Li1+  0.533  0.404  0.654  0.000
  Li1788  Li1+  0.533  0.596  0.746  0.000
  Li1797  Li1+  0.404  0.400  0.800  0.000
  Li1801  Li1+  0.596  0.500  0.900  0.000
  Li1809  Li1+  0.504  0.400  0.900  0.000
  Li1810  Li1+  0.496  0.500  0.800  0.000
  Li1816  Li1+  0.533  0.596  0.946  0.000
  Li1825  Li1+  0.404  0.600  0.000  0.000
  Li1828  Li1+  0.467  0.704  0.046  0.000
  Li1829  Li1+  0.596  0.700  0.100  0.000
  Li1832  Li1+  0.467  0.696  0.154  0.000
  Li1837  Li1+  0.504  0.600  0.100  0.000
  Li1838  Li1+  0.496  0.700  0.000  0.000
  Li1853  Li1+  0.404  0.600  0.200  0.000
  Li1857  Li1+  0.596  0.700  0.300  0.000
  Li1866  Li1+  0.496  0.700  0.200  0.000
  Li1881  Li1+  0.404  0.600  0.400  0.000
  Li1885  Li1+  0.596  0.700  0.500  0.000
  Li1888  Li1+  0.467  0.696  0.554  0.000
  Li1893  Li1+  0.504  0.600  0.500  0.000
  Li1894  Li1+  0.496  0.700  0.400  0.000
  Li1900  Li1+  0.533  0.796  0.546  0.000
  Li1909  Li1+  0.404  0.600  0.600  0.000
  Li1912  Li1+  0.467  0.704  0.646  0.000
  Li1913  Li1+  0.596  0.700  0.700  0.000
  Li1916  Li1+  0.467  0.696  0.754  0.000
  Li1921  Li1+  0.504  0.600  0.700  0.000
  Li1922  Li1+  0.496  0.700  0.600  0.000
  Li1928  Li1+  0.533  0.796  0.746  0.000
  Li1937  Li1+  0.404  0.600  0.800  0.000
  Li1940  Li1+  0.467  0.704  0.846  0.000
  Li1941  Li1+  0.596  0.700  0.900  0.000
  Li1949  Li1+  0.504  0.600  0.900  0.000
  Li1950  Li1+  0.496  0.700  0.800  0.000
  Li1965  Li1+  0.404  0.800  0.000  0.000
  Li1969  Li1+  0.596  0.900  0.100  0.000
  Li1972  Li1+  0.467  0.896  0.154  0.000
  Li1977  Li1+  0.504  0.800  0.100  0.000
  Li1978  Li1+  0.496  0.900  0.000  0.000
  Li1993  Li1+  0.404  0.800  0.200  0.000
  Li1997  Li1+  0.596  0.900  0.300  0.000
  Li2005  Li1+  0.504  0.800  0.300  0.000
  Li2006  Li1+  0.496  0.900  0.200  0.000
  Li2012  Li1+  0.533  0.996  0.346  0.000
  Li2021  Li1+  0.404  0.800  0.400  0.000
  Li2025  Li1+  0.596  0.900  0.500  0.000
  Li2033  Li1+  0.504  0.800  0.500  0.000
  Li2034  Li1+  0.496  0.900  0.400  0.000
  Li2039  Li1+  0.533  0.804  0.454  0.000
  Li2040  Li1+  0.533  0.996  0.546  0.000
  Li2049  Li1+  0.404  0.800  0.600  0.000
  Li2053  Li1+  0.596  0.900  0.700  0.000
  Li2056  Li1+  0.467  0.896  0.754  0.000
  Li2061  Li1+  0.504  0.800  0.700  0.000
  Li2062  Li1+  0.496  0.900  0.600  0.000
  Li2067  Li1+  0.533  0.804  0.654  0.000
  Li2068  Li1+  0.533  0.996  0.746  0.000
  Li2077  Li1+  0.404  0.800  0.800  0.000
  Li2080  Li1+  0.467  0.904  0.846  0.000
  Li2081  Li1+  0.596  0.900  0.900  0.000
  Li2084  Li1+  0.467  0.896  0.954  0.000
  Li2089  Li1+  0.504  0.800  0.900  0.000
  Li2090  Li1+  0.496  0.900  0.800  0.000
  Li2096  Li1+  0.533  0.996  0.946  0.000
  Li2105  Li1+  0.604  0.000  0.000  0.000
  Li2108  Li1+  0.667  0.104  0.046  0.000
  Li2109  Li1+  0.796  0.100  0.100  0.000
  Li2117  Li1+  0.704  -0.000  0.100  0.000
  Li2118  Li1+  0.696  0.100  0.000  0.000
  Li2124  Li1+  0.733  0.196  0.146  0.000
  Li2133  Li1+  0.604  -0.000  0.200  0.000
  Li2136  Li1+  0.667  0.104  0.246  0.000
  Li2137  Li1+  0.796  0.100  0.300  0.000
  Li2140  Li1+  0.667  0.096  0.354  0.000
  Li2145  Li1+  0.704  -0.000  0.300  0.000
  Li2146  Li1+  0.696  0.100  0.200  0.000
  Li2151  Li1+  0.733  0.004  0.254  0.000
  Li2161  Li1+  0.604  -0.000  0.400  0.000
  Li2165  Li1+  0.796  0.100  0.500  0.000
  Li2173  Li1+  0.704  -0.000  0.500  0.000
  Li2174  Li1+  0.696  0.100  0.400  0.000
  Li2189  Li1+  0.604  -0.000  0.600  0.000
  Li2193  Li1+  0.796  0.100  0.700  0.000
  Li2201  Li1+  0.704  -0.000  0.700  0.000
  Li2202  Li1+  0.696  0.100  0.600  0.000
  Li2207  Li1+  0.733  0.004  0.654  0.000
  Li2208  Li1+  0.733  0.196  0.746  0.000
  Li2217  Li1+  0.604  -0.000  0.800  0.000
  Li2221  Li1+  0.796  0.100  0.900  0.000
  Li2224  Li1+  0.667  0.096  0.954  0.000
  Li2229  Li1+  0.704  -0.000  0.900  0.000
  Li2230  Li1+  0.696  0.100  0.800  0.000
  Li2245  Li1+  0.604  0.200  0.000  0.000
  Li2248  Li1+  0.667  0.304  0.046  0.000
  Li2249  Li1+  0.796  0.300  0.100  0.000
  Li2252  Li1+  0.667  0.296  0.154  0.000
  Li2257  Li1+  0.704  0.200  0.100  0.000
  Li2258  Li1+  0.696  0.300  0.000  0.000
  Li2264  Li1+  0.733  0.396  0.146  0.000
  Li2273  Li1+  0.604  0.200  0.200  0.000
  Li2276  Li1+  0.667  0.304  0.246  0.000
  Li2277  Li1+  0.796  0.300  0.300  0.000
  Li2285  Li1+  0.704  0.200  0.300  0.000
  Li2286  Li1+  0.696  0.300  0.200  0.000
  Li2301  Li1+  0.604  0.200  0.400  0.000
  Li2304  Li1+  0.667  0.304  0.446  0.000
  Li2305  Li1+  0.796  0.300  0.500  0.000
  Li2313  Li1+  0.704  0.200  0.500  0.000
  Li2314  Li1+  0.696  0.300  0.400  0.000
  Li2329  Li1+  0.604  0.200  0.600  0.000
  Li2333  Li1+  0.796  0.300  0.700  0.000
  Li2336  Li1+  0.667  0.296  0.754  0.000
  Li2339  Li1+  0.669  0.233  0.640  0.000
  Li2341  Li1+  0.704  0.200  0.700  0.000
  Li2342  Li1+  0.696  0.300  0.600  0.000
  Li2347  Li1+  0.733  0.204  0.654  0.000
  Li2348  Li1+  0.733  0.396  0.746  0.000
  Li2357  Li1+  0.604  0.200  0.800  0.000
  Li2360  Li1+  0.667  0.304  0.846  0.000
  Li2361  Li1+  0.796  0.300  0.900  0.000
  Li2364  Li1+  0.667  0.296  0.954  0.000
  Li2369  Li1+  0.704  0.200  0.900  0.000
  Li2370  Li1+  0.696  0.300  0.800  0.000
  Li2376  Li1+  0.733  0.396  0.946  0.000
  Li2385  Li1+  0.604  0.400  0.000  0.000
  Li2388  Li1+  0.667  0.504  0.046  0.000
  Li2389  Li1+  0.796  0.500  0.100  0.000
  Li2397  Li1+  0.704  0.400  0.100  0.000
  Li2398  Li1+  0.696  0.500  0.000  0.000
  Li2403  Li1+  0.733  0.404  0.054  0.000
  Li2413  Li1+  0.604  0.400  0.200  0.000
  Li2417  Li1+  0.796  0.500  0.300  0.000
  Li2420  Li1+  0.667  0.496  0.354  0.000
  Li2425  Li1+  0.704  0.400  0.300  0.000
  Li2426  Li1+  0.696  0.500  0.200  0.000
  Li2441  Li1+  0.604  0.400  0.400  0.000
  Li2445  Li1+  0.796  0.500  0.500  0.000
  Li2453  Li1+  0.704  0.400  0.500  0.000
  Li2454  Li1+  0.696  0.500  0.400  0.000
  Li2459  Li1+  0.733  0.404  0.454  0.000
  Li2469  Li1+  0.604  0.400  0.600  0.000
  Li2473  Li1+  0.796  0.500  0.700  0.000
  Li2481  Li1+  0.704  0.400  0.700  0.000
  Li2482  Li1+  0.696  0.500  0.600  0.000
  Li2497  Li1+  0.604  0.400  0.800  0.000
  Li2501  Li1+  0.796  0.500  0.900  0.000
  Li2509  Li1+  0.704  0.400  0.900  0.000
  Li2510  Li1+  0.696  0.500  0.800  0.000
  Li2516  Li1+  0.733  0.596  0.946  0.000
  Li2525  Li1+  0.604  0.600  0.000  0.000
  Li2529  Li1+  0.796  0.700  0.100  0.000
  Li2537  Li1+  0.704  0.600  0.100  0.000
  Li2538  Li1+  0.696  0.700  0.000  0.000
  Li2544  Li1+  0.733  0.796  0.146  0.000
  Li2553  Li1+  0.604  0.600  0.200  0.000
  Li2556  Li1+  0.667  0.704  0.246  0.000
  Li2557  Li1+  0.796  0.700  0.300  0.000
  Li2560  Li1+  0.667  0.696  0.354  0.000
  Li2565  Li1+  0.704  0.600  0.300  0.000
  Li2566  Li1+  0.696  0.700  0.200  0.000
  Li2571  Li1+  0.733  0.604  0.254  0.000
  Li2572  Li1+  0.733  0.796  0.346  0.000
  Li2581  Li1+  0.604  0.600  0.400  0.000
  Li2585  Li1+  0.796  0.700  0.500  0.000
  Li2593  Li1+  0.704  0.600  0.500  0.000
  Li2594  Li1+  0.696  0.700  0.400  0.000
  Li2599  Li1+  0.733  0.604  0.454  0.000
  Li2600  Li1+  0.733  0.796  0.546  0.000
  Li2609  Li1+  0.604  0.600  0.600  0.000
  Li2612  Li1+  0.667  0.704  0.646  0.000
  Li2613  Li1+  0.796  0.700  0.700  0.000
  Li2616  Li1+  0.667  0.696  0.754  0.000
  Li2621  Li1+  0.704  0.600  0.700  0.000
  Li2622  Li1+  0.696  0.700  0.600  0.000
  Li2627  Li1+  0.733  0.604  0.654  0.000
  Li2637  Li1+  0.604  0.600  0.800  0.000
  Li2641  Li1+  0.796  0.700  0.900  0.000
  Li2644  Li1+  0.667  0.696  0.954  0.000
  Li2649  Li1+  0.704  0.600  0.900  0.000
  Li2650  Li1+  0.696  0.700  0.800  0.000
  Li2655  Li1+  0.733  0.604  0.854  0.000
  Li2656  Li1+  0.733  0.796  0.946  0.000
  Li2665  Li1+  0.604  0.800  0.000  0.000
  Li2668  Li1+  0.667  0.904  0.046  0.000
  Li2669  Li1+  0.796  0.900  0.100  0.000
  Li2677  Li1+  0.704  0.800  0.100  0.000
  Li2678  Li1+  0.696  0.900  0.000  0.000
  Li2683  Li1+  0.733  0.804  0.054  0.000
  Li2684  Li1+  0.733  0.996  0.146  0.000
  Li2693  Li1+  0.604  0.800  0.200  0.000
  Li2696  Li1+  0.667  0.904  0.246  0.000
  Li2697  Li1+  0.796  0.900  0.300  0.000
  Li2700  Li1+  0.667  0.896  0.354  0.000
  Li2705  Li1+  0.704  0.800  0.300  0.000
  Li2706  Li1+  0.696  0.900  0.200  0.000
  Li2721  Li1+  0.604  0.800  0.400  0.000
  Li2725  Li1+  0.796  0.900  0.500  0.000
  Li2728  Li1+  0.667  0.896  0.554  0.000
  Li2733  Li1+  0.704  0.800  0.500  0.000
  Li2734  Li1+  0.696  0.900  0.400  0.000
  Li2740  Li1+  0.733  0.996  0.546  0.000
  Li2749  Li1+  0.604  0.800  0.600  0.000
  Li2752  Li1+  0.667  0.904  0.646  0.000
  Li2753  Li1+  0.796  0.900  0.700  0.000
  Li2761  Li1+  0.704  0.800  0.700  0.000
  Li2762  Li1+  0.696  0.900  0.600  0.000
  Li2767  Li1+  0.733  0.804  0.654  0.000
  Li2768  Li1+  0.733  0.996  0.746  0.000
  Li2777  Li1+  0.604  0.800  0.800  0.000
  Li2781  Li1+  0.796  0.900  0.900  0.000
  Li2784  Li1+  0.667  0.896  0.954  0.000
  Li2789  Li1+  0.704  0.800  0.900  0.000
  Li2790  Li1+  0.696  0.900  0.800  0.000
  Li2795  Li1+  0.733  0.804  0.854  0.000
  Li2796  Li1+  0.733  0.996  0.946  0.000
  Li2805  Li1+  0.804  0.000  0.000  0.000
  Li2808  Li1+  0.867  0.104  0.046  0.000
  Li2809  Li1+  0.996  0.100  0.100  0.000
  Li2817  Li1+  0.904  -0.000  0.100  0.000
  Li2818  Li1+  0.896  0.100  0.000  0.000
  Li2833  Li1+  0.804  -0.000  0.200  0.000
  Li2836  Li1+  0.867  0.104  0.246  0.000
  Li2837  Li1+  0.996  0.100  0.300  0.000
  Li2845  Li1+  0.904  -0.000  0.300  0.000
  Li2846  Li1+  0.896  0.100  0.200  0.000
  Li2852  Li1+  0.933  0.196  0.346  0.000
  Li2861  Li1+  0.804  -0.000  0.400  0.000
  Li2864  Li1+  0.867  0.104  0.446  0.000
  Li2865  Li1+  0.996  0.100  0.500  0.000
  Li2868  Li1+  0.867  0.096  0.554  0.000
  Li2873  Li1+  0.904  -0.000  0.500  0.000
  Li2874  Li1+  0.896  0.100  0.400  0.000
  Li2879  Li1+  0.933  0.004  0.454  0.000
  Li2889  Li1+  0.804  -0.000  0.600  0.000
  Li2892  Li1+  0.867  0.104  0.646  0.000
  Li2893  Li1+  0.996  0.100  0.700  0.000
  Li2896  Li1+  0.867  0.096  0.754  0.000
  Li2901  Li1+  0.904  -0.000  0.700  0.000
  Li2902  Li1+  0.896  0.100  0.600  0.000
  Li2907  Li1+  0.933  0.004  0.654  0.000
  Li2908  Li1+  0.933  0.196  0.746  0.000
  Li2917  Li1+  0.804  -0.000  0.800  0.000
  Li2921  Li1+  0.996  0.100  0.900  0.000
  Li2924  Li1+  0.867  0.096  0.954  0.000
  Li2929  Li1+  0.904  -0.000  0.900  0.000
  Li2930  Li1+  0.896  0.100  0.800  0.000
  Li2945  Li1+  0.804  0.200  0.000  0.000
  Li2949  Li1+  0.996  0.300  0.100  0.000
  Li2957  Li1+  0.904  0.200  0.100  0.000
  Li2958  Li1+  0.896  0.300  0.000  0.000
  Li2973  Li1+  0.804  0.200  0.200  0.000
  Li2977  Li1+  0.996  0.300  0.300  0.000
  Li2980  Li1+  0.867  0.296  0.354  0.000
  Li2985  Li1+  0.904  0.200  0.300  0.000
  Li2986  Li1+  0.896  0.300  0.200  0.000
  Li2992  Li1+  0.933  0.396  0.346  0.000
  Li3001  Li1+  0.804  0.200  0.400  0.000
  Li3005  Li1+  0.996  0.300  0.500  0.000
  Li3013  Li1+  0.904  0.200  0.500  0.000
  Li3014  Li1+  0.896  0.300  0.400  0.000
  Li3020  Li1+  0.933  0.396  0.546  0.000
  Li3029  Li1+  0.804  0.200  0.600  0.000
  Li3036  Li1+  0.867  0.296  0.754  0.000
  Li3039  Li1+  0.869  0.233  0.640  0.000
  Li3041  Li1+  0.904  0.200  0.700  0.000
  Li3042  Li1+  0.896  0.300  0.600  0.000
  Li3047  Li1+  0.933  0.204  0.654  0.000
  Li3057  Li1+  0.804  0.200  0.800  0.000
  Li3060  Li1+  0.867  0.304  0.846  0.000
  Li3061  Li1+  0.996  0.300  0.900  0.000
  Li3069  Li1+  0.904  0.200  0.900  0.000
  Li3070  Li1+  0.896  0.300  0.800  0.000
  Li3075  Li1+  0.933  0.204  0.854  0.000
  Li3085  Li1+  0.804  0.400  0.000  0.000
  Li3089  Li1+  0.996  0.500  0.100  0.000
  Li3097  Li1+  0.904  0.400  0.100  0.000
  Li3098  Li1+  0.896  0.500  0.000  0.000
  Li3103  Li1+  0.933  0.404  0.054  0.000
  Li3113  Li1+  0.804  0.400  0.200  0.000
  Li3117  Li1+  0.996  0.500  0.300  0.000
  Li3125  Li1+  0.904  0.400  0.300  0.000
  Li3126  Li1+  0.896  0.500  0.200  0.000
  Li3131  Li1+  0.933  0.404  0.254  0.000
  Li3132  Li1+  0.933  0.596  0.346  0.000
  Li3141  Li1+  0.804  0.400  0.400  0.000
  Li3144  Li1+  0.867  0.504  0.446  0.000
  Li3145  Li1+  0.996  0.500  0.500  0.000
  Li3148  Li1+  0.867  0.496  0.554  0.000
  Li3153  Li1+  0.904  0.400  0.500  0.000
  Li3154  Li1+  0.896  0.500  0.400  0.000
  Li3159  Li1+  0.933  0.404  0.454  0.000
  Li3160  Li1+  0.933  0.596  0.546  0.000
  Li3169  Li1+  0.804  0.400  0.600  0.000
  Li3172  Li1+  0.867  0.504  0.646  0.000
  Li3173  Li1+  0.996  0.500  0.700  0.000
  Li3176  Li1+  0.867  0.496  0.754  0.000
  Li3181  Li1+  0.904  0.400  0.700  0.000
  Li3182  Li1+  0.896  0.500  0.600  0.000
  Li3188  Li1+  0.933  0.596  0.746  0.000
  Li3197  Li1+  0.804  0.400  0.800  0.000
  Li3201  Li1+  0.996  0.500  0.900  0.000
  Li3209  Li1+  0.904  0.400  0.900  0.000
  Li3210  Li1+  0.896  0.500  0.800  0.000
  Li3215  Li1+  0.933  0.404  0.854  0.000
  Li3225  Li1+  0.804  0.600  0.000  0.000
  Li3228  Li1+  0.867  0.704  0.046  0.000
  Li3229  Li1+  0.996  0.700  0.100  0.000
  Li3237  Li1+  0.904  0.600  0.100  0.000
  Li3238  Li1+  0.896  0.700  0.000  0.000
  Li3243  Li1+  0.933  0.604  0.054  0.000
  Li3253  Li1+  0.804  0.600  0.200  0.000
  Li3256  Li1+  0.867  0.704  0.246  0.000
  Li3257  Li1+  0.996  0.700  0.300  0.000
  Li3260  Li1+  0.867  0.696  0.354  0.000
  Li3265  Li1+  0.904  0.600  0.300  0.000
  Li3266  Li1+  0.896  0.700  0.200  0.000
  Li3271  Li1+  0.933  0.604  0.254  0.000
  Li3281  Li1+  0.804  0.600  0.400  0.000
  Li3284  Li1+  0.867  0.704  0.446  0.000
  Li3285  Li1+  0.996  0.700  0.500  0.000
  Li3288  Li1+  0.867  0.696  0.554  0.000
  Li3293  Li1+  0.904  0.600  0.500  0.000
  Li3294  Li1+  0.896  0.700  0.400  0.000
  Li3299  Li1+  0.933  0.604  0.454  0.000
  Li3309  Li1+  0.804  0.600  0.600  0.000
  Li3313  Li1+  0.996  0.700  0.700  0.000
  Li3321  Li1+  0.904  0.600  0.700  0.000
  Li3322  Li1+  0.896  0.700  0.600  0.000
  Li3327  Li1+  0.933  0.604  0.654  0.000
  Li3328  Li1+  0.933  0.796  0.746  0.000
  Li3337  Li1+  0.804  0.600  0.800  0.000
  Li3341  Li1+  0.996  0.700  0.900  0.000
  Li3349  Li1+  0.904  0.600  0.900  0.000
  Li3350  Li1+  0.896  0.700  0.800  0.000
  Li3365  Li1+  0.804  0.800  0.000  0.000
  Li3368  Li1+  0.867  0.904  0.046  0.000
  Li3369  Li1+  0.996  0.900  0.100  0.000
  Li3372  Li1+  0.867  0.896  0.154  0.000
  Li3377  Li1+  0.904  0.800  0.100  0.000
  Li3378  Li1+  0.896  0.900  0.000  0.000
  Li3383  Li1+  0.933  0.804  0.054  0.000
  Li3393  Li1+  0.804  0.800  0.200  0.000
  Li3397  Li1+  0.996  0.900  0.300  0.000
  Li3404  Li1+  0.869  0.967  0.360  0.000
  Li3405  Li1+  0.904  0.800  0.300  0.000
  Li3406  Li1+  0.896  0.900  0.200  0.000
  Li3411  Li1+  0.933  0.804  0.254  0.000
  Li3421  Li1+  0.804  0.800  0.400  0.000
  Li3425  Li1+  0.996  0.900  0.500  0.000
  Li3428  Li1+  0.867  0.896  0.554  0.000
  Li3433  Li1+  0.904  0.800  0.500  0.000
  Li3434  Li1+  0.896  0.900  0.400  0.000
  Li3437  Li1+  0.931  0.867  0.540  0.000
  Li3439  Li1+  0.933  0.804  0.454  0.000
  Li3449  Li1+  0.804  0.800  0.600  0.000
  Li3452  Li1+  0.867  0.904  0.646  0.000
  Li3453  Li1+  0.996  0.900  0.700  0.000
  Li3461  Li1+  0.904  0.800  0.700  0.000
  Li3462  Li1+  0.896  0.900  0.600  0.000
  Li3477  Li1+  0.804  0.800  0.800  0.000
  Li3480  Li1+  0.867  0.904  0.846  0.000
  Li3481  Li1+  0.996  0.900  0.900  0.000
  Li3484  Li1+  0.867  0.896  0.954  0.000
  Li3489  Li1+  0.904  0.800  0.900  0.000
  Li3490  Li1+  0.896  0.900  0.800  0.000
  Li1422  Li1+  0.531  0.133  0.060  0.000
  Li1240  Li1+  0.267  0.704  0.846  0.000
  Li2487  Li1+  0.733  0.404  0.654  0.000
  Li876  Li1+  0.267  0.304  0.246  0.000
  Li1524  Li1+  0.467  0.096  0.954  0.000
  Li124  Li1+  0.067  0.096  0.954  0.000
  Li2332  Li1+  0.667  0.304  0.646  0.000
  Li1440  Li1+  0.467  0.096  0.354  0.000
  Li3008  Li1+  0.867  0.296  0.554  0.000
  Li3104  Li1+  0.933  0.596  0.146  0.000
  Li2123  Li1+  0.733  0.004  0.054  0.000
  Li780  Li1+  0.333  0.196  0.546  0.000
  Li2292  Li1+  0.733  0.396  0.346  0.000
  Li148  Li1+  0.067  0.304  0.046  0.000
  Li764  Li1+  0.267  0.104  0.446  0.000
  Li1884  Li1+  0.467  0.704  0.446  0.000
  Li1548  Li1+  0.467  0.304  0.046  0.000
  Li1255  Li1+  0.333  0.604  0.854  0.000
  Li2000  Li1+  0.467  0.896  0.354  0.000
  Li3316  Li1+  0.867  0.696  0.754  0.000
  Li724  Li1+  0.333  0.196  0.146  0.000
  Li2152  Li1+  0.733  0.196  0.346  0.000
  Li628  Li1+  0.067  0.896  0.554  0.000
  Li2640  Li1+  0.667  0.704  0.846  0.000
  Li835  Li1+  0.333  0.004  0.854  0.000
  Li1843  Li1+  0.533  0.604  0.054  0.000
  Li1244  Li1+  0.267  0.696  0.954  0.000
  Li936  Li1+  0.267  0.296  0.754  0.000
  Li3019  Li1+  0.933  0.204  0.454  0.000
  Li3064  Li1+  0.867  0.296  0.954  0.000
  Li2404  Li1+  0.733  0.596  0.146  0.000
  Li2280  Li1+  0.667  0.296  0.354  0.000
  Li3468  Li1+  0.933  0.996  0.746  0.000
  Li2824  Li1+  0.933  0.196  0.146  0.000
  Li1804  Li1+  0.467  0.496  0.954  0.000
  Li736  Li1+  0.267  0.104  0.246  0.000
  Li1604  Li1+  0.467  0.304  0.446  0.000
  Li2179  Li1+  0.733  0.004  0.454  0.000
  Li1984  Li1+  0.533  0.996  0.146  0.000
  Li3012  Li1+  0.869  0.367  0.560  0.000
  Li2392  Li1+  0.667  0.496  0.154  0.000
  Li1899  Li1+  0.533  0.604  0.454  0.000
  Li2739  Li1+  0.733  0.804  0.454  0.000
  Li1692  Li1+  0.467  0.496  0.154  0.000
  Li1468  Li1+  0.467  0.096  0.554  0.000
  Li1076  Li1+  0.267  0.496  0.754  0.000
  Li176  Li1+  0.067  0.304  0.246  0.000
  Li2319  Li1+  0.733  0.204  0.454  0.000
  Li1408  Li1+  0.467  0.104  0.046  0.000
  Li1443  Li1+  0.469  0.033  0.240  0.000
  Li2432  Li1+  0.733  0.596  0.346  0.000
  Li808  Li1+  0.333  0.196  0.746  0.000
  Li2095  Li1+  0.533  0.804  0.854  0.000
  Li3200  Li1+  0.867  0.504  0.846  0.000
  Li275  Li1+  0.133  0.204  0.854  0.000
  Li2532  Li1+  0.667  0.696  0.154  0.001
  Li2235  Li1+  0.733  0.004  0.854  0.001
  Li2963  Li1+  0.933  0.204  0.054  0.001
  Li456  Li1+  0.067  0.704  0.246  0.001
  Li2180  Li1+  0.733  0.196  0.546  0.001
  Li1004  Li1+  0.333  0.596  0.146  0.001
  Li2840  Li1+  0.867  0.096  0.354  0.001
  Li852  Li1+  0.267  0.296  0.154  0.001
  Li2011  Li1+  0.533  0.804  0.254  0.001
  Li2935  Li1+  0.933  0.004  0.854  0.001
  Li1927  Li1+  0.533  0.604  0.654  0.001
  Li443  Li1+  0.133  0.604  0.054  0.001
  Li3300  Li1+  0.933  0.796  0.546  0.001
  Li864  Li1+  0.333  0.396  0.146  0.001
  Li2584  Li1+  0.667  0.704  0.446  0.001
  Li344  Li1+  0.067  0.504  0.446  0.001
  Li2291  Li1+  0.733  0.204  0.254  0.001
  Li680  Li1+  0.067  0.904  0.846  0.001
  Li904  Li1+  0.267  0.304  0.446  0.001
  Li2952  Li1+  0.867  0.296  0.154  0.001
  Li3456  Li1+  0.867  0.896  0.754  0.001
  Li1536  Li1+  0.533  0.196  0.946  0.001
  Li1535  Li1+  0.533  0.004  0.854  0.001
  Li2028  Li1+  0.467  0.896  0.554  0.001
  Li1328  Li1+  0.267  0.896  0.554  0.001
  Li1996  Li1+  0.467  0.904  0.246  0.001
  Li1856  Li1+  0.467  0.704  0.246  0.001
  Li1732  Li1+  0.533  0.596  0.346  0.001
  Li1188  Li1+  0.267  0.696  0.554  0.001
  Li2880  Li1+  0.933  0.196  0.546  0.001
  Li792  Li1+  0.267  0.104  0.646  0.001
  Li668  Li1+  0.133  0.996  0.746  0.001
  Li359  Li1+  0.133  0.404  0.454  0.001
  Li976  Li1+  0.333  0.396  0.946  0.001
  Li3440  Li1+  0.933  0.996  0.546  0.001
  Li3272  Li1+  0.933  0.796  0.346  0.001
  Li2515  Li1+  0.733  0.404  0.854  0.001
  Li500  Li1+  0.133  0.796  0.546  0.001
  Li967  Li1+  0.269  0.233  0.840  0.001
  Li3496  Li1+  0.933  0.996  0.946  0.001
  Li2964  Li1+  0.933  0.396  0.146  0.001
  Li2756  Li1+  0.667  0.896  0.754  0.001
  Li2543  Li1+  0.733  0.604  0.054  0.001
  Li3088  Li1+  0.867  0.504  0.046  0.001
  Li303  Li1+  0.133  0.404  0.054  0.001
  Li136  Li1+  0.133  0.196  0.946  0.001
  Li1507  Li1+  0.533  0.004  0.654  0.001
  Li464  Li1+  0.069  0.767  0.360  0.001
  Li1303  Li1+  0.269  0.833  0.240  0.001
  Li2672  Li1+  0.667  0.896  0.154  0.001
  Li796  Li1+  0.267  0.096  0.754  0.001
  Li3232  Li1+  0.867  0.696  0.154  0.001
  Li2628  Li1+  0.733  0.796  0.746  0.001
  Li3004  Li1+  0.867  0.304  0.446  0.001
  Li12  Li1+  0.067  0.096  0.154  0.001
  Li2196  Li1+  0.667  0.096  0.754  0.001
  Li2112  Li1+  0.667  0.096  0.154  0.001
  Li3424  Li1+  0.867  0.904  0.446  0.001
  Li2823  Li1+  0.933  0.004  0.054  0.001
  Li2712  Li1+  0.733  0.996  0.346  0.001
  Li164  Li1+  0.133  0.396  0.146  0.001
  Li260  Li1+  0.067  0.304  0.846  0.001
  Li1944  Li1+  0.467  0.696  0.954  0.001
  Li583  Li1+  0.133  0.804  0.054  0.001
  Li1955  Li1+  0.533  0.604  0.854  0.001
  Li2528  Li1+  0.667  0.704  0.046  0.001
  Li1968  Li1+  0.467  0.904  0.046  0.001
  Li2936  Li1+  0.933  0.196  0.946  0.001
  Li2488  Li1+  0.733  0.596  0.746  0.001
  Li3412  Li1+  0.933  0.996  0.346  0.001
  Li96  Li1+  0.067  0.096  0.754  0.001
  Li1983  Li1+  0.533  0.804  0.054  0.001
  Li2500  Li1+  0.667  0.504  0.846  0.001
  Li1184  Li1+  0.267  0.704  0.446  0.001
  Li23  Li1+  0.133  0.004  0.054  0.001
  Li2851  Li1+  0.933  0.004  0.254  0.001
  Li428  Li1+  0.067  0.704  0.046  0.002
  Li247  Li1+  0.133  0.204  0.654  0.002
  Li1340  Li1+  0.333  0.996  0.546  0.002
  Li1296  Li1+  0.267  0.904  0.246  0.002
  Li836  Li1+  0.333  0.196  0.946  0.002
  Li2236  Li1+  0.733  0.196  0.946  0.002
  Li528  Li1+  0.133  0.796  0.746  0.002
  Li3187  Li1+  0.933  0.404  0.654  0.002
  Li2024  Li1+  0.467  0.904  0.446  0.002
  Li572  Li1+  0.067  0.896  0.154  0.002
  Li2052  Li1+  0.467  0.904  0.646  0.002
  Li779  Li1+  0.333  0.004  0.454  0.002
  Li2711  Li1+  0.733  0.804  0.254  0.002
  Li1688  Li1+  0.467  0.504  0.046  0.002
  Li2724  Li1+  0.667  0.904  0.446  0.002
  Li3204  Li1+  0.867  0.496  0.954  0.002
  Li3384  Li1+  0.933  0.996  0.146  0.002
  Li1759  Li1+  0.533  0.404  0.454  0.002
  Li2476  Li1+  0.667  0.496  0.754  0.002
  Li1844  Li1+  0.533  0.796  0.146  0.002
  Li1284  Li1+  0.333  0.996  0.146  0.002
  Li1300  Li1+  0.267  0.896  0.354  0.002
  Li2192  Li1+  0.667  0.104  0.646  0.002
  Li1520  Li1+  0.467  0.104  0.846  0.002
  Li3048  Li1+  0.933  0.396  0.746  0.002
  Li248  Li1+  0.133  0.396  0.746  0.002
  Li778  Li1+  0.331  0.133  0.460  0.002
  Li1815  Li1+  0.533  0.404  0.854  0.002
  Li2320  Li1+  0.733  0.396  0.546  0.002
  Li1311  Li1+  0.333  0.804  0.254  0.002
  Li2472  Li1+  0.667  0.504  0.646  0.002
  Li3400  Li1+  0.867  0.896  0.354  0.002
  Li2920  Li1+  0.867  0.104  0.846  0.002
  Li2283  Li1+  0.669  0.233  0.240  0.003
  Li555  Li1+  0.133  0.604  0.854  0.003
  Li1380  Li1+  0.267  0.904  0.846  0.003
  Li2588  Li1+  0.667  0.696  0.554  0.003
  Li771  Li1+  0.269  0.033  0.440  0.003
  Li1703  Li1+  0.533  0.404  0.054  0.003
  Li2934  Li1+  0.931  0.133  0.860  0.003
  Li3495  Li1+  0.933  0.804  0.854  0.003
  Li1800  Li1+  0.467  0.504  0.846  0.003
  Li652  Li1+  0.067  0.904  0.646  0.003
  Li1872  Li1+  0.533  0.796  0.346  0.003
  Li2991  Li1+  0.933  0.204  0.254  0.003
  Li695  Li1+  0.133  0.804  0.854  0.003
  Li3312  Li1+  0.867  0.704  0.646  0.003
  Li1368  Li1+  0.333  0.996  0.746  0.003
  Li3344  Li1+  0.867  0.696  0.954  0.003
  Li1496  Li1+  0.467  0.096  0.754  0.003
  Li2507  Li1+  0.669  0.433  0.840  0.003
  Li2220  Li1+  0.667  0.104  0.846  0.003
  Li360  Li1+  0.133  0.596  0.546  0.003
  Li2444  Li1+  0.667  0.504  0.446  0.004
  Li2569  Li1+  0.731  0.667  0.340  0.004
  Li3120  Li1+  0.867  0.496  0.354  0.004
  Li1716  Li1+  0.467  0.504  0.246  0.004
  Li2395  Li1+  0.669  0.433  0.040  0.004
  Li106  Li1+  0.131  0.133  0.660  0.004
  Li499  Li1+  0.133  0.604  0.454  0.004
  Li2448  Li1+  0.667  0.496  0.554  0.004
  Li1760  Li1+  0.533  0.596  0.546  0.004
  Li863  Li1+  0.333  0.204  0.054  0.004
  Li40  Li1+  0.067  0.096  0.354  0.004
  Li807  Li1+  0.333  0.004  0.654  0.004
  Li1647  Li1+  0.533  0.204  0.654  0.005
  Li1632  Li1+  0.467  0.304  0.646  0.005
  Li219  Li1+  0.133  0.204  0.454  0.005
  Li2227  Li1+  0.669  0.033  0.840  0.005
  Li1143  Li1+  0.333  0.604  0.054  0.005
  Li2171  Li1+  0.669  0.033  0.440  0.005
  Li1860  Li1+  0.467  0.696  0.354  0.006
  Li2156  Li1+  0.771  0.104  0.253  0.006
  Li973  Li1+  0.331  0.267  0.940  0.006
  Li2976  Li1+  0.867  0.304  0.246  0.006
  Li2793  Li1+  0.731  0.867  0.940  0.006
  Li1956  Li1+  0.533  0.796  0.946  0.006
  Li2059  Li1+  0.469  0.833  0.640  0.007
  Li442  Li1+  0.131  0.733  0.060  0.007
  Li1619  Li1+  0.533  0.204  0.454  0.007
  Li3076  Li1+  0.933  0.396  0.946  0.007
  Li2308  Li1+  0.667  0.296  0.554  0.007
  Li2050  Li1+  0.408  0.804  0.664  0.007
  Li2168  Li1+  0.667  0.096  0.554  0.008
  Li3396  Li1+  0.867  0.904  0.246  0.008
  Li1216  Li1+  0.267  0.696  0.754  0.008
  Li1444  Li1+  0.469  0.167  0.360  0.008
  Li556  Li1+  0.133  0.796  0.946  0.008
  Li2038  Li1+  0.531  0.933  0.460  0.009
  Li2374  Li1+  0.731  0.333  0.860  0.009
  Li1367  Li1+  0.333  0.804  0.654  0.010
  Li183  Li1+  0.069  0.233  0.240  0.011
  Li80  Li1+  0.133  0.196  0.546  0.011
  Li3356  Li1+  0.933  0.796  0.946  0.011
  Li2401  Li1+  0.731  0.467  0.140  0.011
  Li52  Li1+  0.133  0.196  0.346  0.012
  Li2788  Li1+  0.669  0.967  0.960  0.012
  Li696  Li1+  0.133  0.996  0.946  0.012
  Li2514  Li1+  0.731  0.533  0.860  0.012
  Li3244  Li1+  0.933  0.796  0.146  0.013
  Li1352  Li1+  0.267  0.904  0.646  0.013
  Li2766  Li1+  0.731  0.933  0.660  0.013
  Li3320  Li1+  0.869  0.767  0.760  0.014
  Li3467  Li1+  0.933  0.804  0.654  0.014
  Li2703  Li1+  0.669  0.833  0.240  0.014
  Li3092  Li1+  0.867  0.496  0.154  0.014
  Li3207  Li1+  0.869  0.433  0.840  0.015
  Li1324  Li1+  0.267  0.904  0.446  0.015
  Li274  Li1+  0.131  0.333  0.860  0.016
  Li1871  Li1+  0.533  0.604  0.254  0.017
  Li3073  Li1+  0.931  0.267  0.940  0.018
  Li2263  Li1+  0.733  0.204  0.054  0.018
  Li612  Li1+  0.133  0.996  0.346  0.018
  Li1100  Li1+  0.267  0.504  0.846  0.018
  Li1636  Li1+  0.467  0.296  0.754  0.019
  Li1104  Li1+  0.267  0.496  0.954  0.019
  Li2504  Li1+  0.667  0.496  0.954  0.019
  Li953  Li1+  0.392  0.296  0.964  0.020
  Li1562  Li1+  0.531  0.333  0.060  0.020
  Li2087  Li1+  0.469  0.833  0.840  0.020
  Li2591  Li1+  0.669  0.633  0.440  0.021
  Li824  Li1+  0.267  0.096  0.954  0.021
  Li332  Li1+  0.133  0.596  0.346  0.021
  Li212  Li1+  0.069  0.367  0.560  0.022
  Li135  Li1+  0.133  0.004  0.854  0.022
  Li526  Li1+  0.131  0.733  0.660  0.022
  Li2738  Li1+  0.731  0.933  0.460  0.024
  Li3355  Li1+  0.933  0.604  0.854  0.024
  Li292  Li1+  0.067  0.496  0.154  0.025
  Li684  Li1+  0.067  0.896  0.954  0.025
  Li2812  Li1+  0.867  0.096  0.154  0.025
  Li918  Li1+  0.331  0.333  0.460  0.025
  Li744  Li1+  0.269  0.167  0.360  0.025
  Li2010  Li1+  0.531  0.933  0.260  0.026
  Li1030  Li1+  0.331  0.533  0.260  0.026
  Li268  Li1+  0.069  0.367  0.960  0.026
  Li408  Li1+  0.069  0.567  0.960  0.026
  Li2183  Li1+  0.771  0.096  0.547  0.027
  Li848  Li1+  0.267  0.304  0.046  0.027
  Li1228  Li1+  0.333  0.796  0.746  0.029
  Li2037  Li1+  0.531  0.867  0.540  0.029
  Li2340  Li1+  0.669  0.367  0.760  0.029
  Li1268  Li1+  0.267  0.904  0.046  0.029
  Li2162  Li1+  0.608  0.004  0.464  0.029
  Li388  Li1+  0.133  0.596  0.746  0.031
  Li2704  Li1+  0.669  0.967  0.360  0.031
  Li1807  Li1+  0.469  0.433  0.840  0.032
  Li3179  Li1+  0.869  0.433  0.640  0.032
  Li3459  Li1+  0.869  0.833  0.640  0.032
  Li2773  Li1+  0.792  0.896  0.964  0.032
  Li2709  Li1+  0.731  0.867  0.340  0.032
  Li1611  Li1+  0.469  0.233  0.440  0.033
  Li68  Li1+  0.067  0.096  0.554  0.034
  Li1085  Li1+  0.331  0.467  0.740  0.034
  Li527  Li1+  0.133  0.604  0.654  0.034
  Li1835  Li1+  0.469  0.633  0.040  0.034
  Li1253  Li1+  0.331  0.667  0.940  0.034
  Li2200  Li1+  0.669  0.167  0.760  0.035
  Li995  Li1+  0.269  0.433  0.040  0.035
  Li2345  Li1+  0.731  0.267  0.740  0.036
  Li120  Li1+  0.067  0.104  0.846  0.037
  Li3353  Li1+  0.931  0.667  0.940  0.038
  Li1192  Li1+  0.269  0.767  0.560  0.038
  Li2780  Li1+  0.667  0.904  0.846  0.038
  Li1088  Li1+  0.333  0.596  0.746  0.038
  Li3115  Li1+  0.829  0.404  0.247  0.039
  Li2311  Li1+  0.669  0.233  0.440  0.039
  Li2060  Li1+  0.469  0.967  0.760  0.039
  Li1730  Li1+  0.531  0.533  0.260  0.039
  Li77  Li1+  0.131  0.067  0.540  0.040
  Li2172  Li1+  0.669  0.167  0.560  0.040
  Li880  Li1+  0.267  0.296  0.354  0.042
  Li2164  Li1+  0.667  0.104  0.446  0.043
  Li1212  Li1+  0.267  0.704  0.646  0.043
  Li828  Li1+  0.269  0.167  0.960  0.044
  Li3235  Li1+  0.869  0.633  0.040  0.044
  Li3151  Li1+  0.869  0.433  0.440  0.044
  Li1892  Li1+  0.469  0.767  0.560  0.044
  Li3216  Li1+  0.933  0.596  0.946  0.044
  Li184  Li1+  0.069  0.367  0.360  0.045
  Li1563  Li1+  0.533  0.204  0.054  0.045
  Li688  Li1+  0.069  0.967  0.960  0.045
  Li273  Li1+  0.131  0.267  0.940  0.046
  Li49  Li1+  0.131  0.067  0.340  0.047
  Li1723  Li1+  0.469  0.433  0.240  0.048
  Li3450  Li1+  0.808  0.804  0.664  0.049
  Li946  Li1+  0.331  0.333  0.660  0.050
  Li3032  Li1+  0.867  0.304  0.646  0.050
  Li1976  Li1+  0.469  0.967  0.160  0.050
  Li1808  Li1+  0.469  0.567  0.960  0.050
  Li716  Li1+  0.269  0.167  0.160  0.050
  Li575  Li1+  0.069  0.833  0.040  0.050
  Li1589  Li1+  0.531  0.267  0.340  0.051
  Li1947  Li1+  0.469  0.633  0.840  0.052
  Li2561  Li1+  0.608  0.796  0.336  0.054
  Li2915  Li1+  0.992  0.104  0.836  0.054
  Li1032  Li1+  0.333  0.596  0.346  0.055
  Li3116  Li1+  0.867  0.504  0.246  0.055
  Li1926  Li1+  0.531  0.733  0.660  0.055
  Li239  Li1+  0.069  0.233  0.640  0.055
  Li1711  Li1+  0.592  0.504  0.236  0.056
  Li1132  Li1+  0.267  0.696  0.154  0.056
  Li1044  Li1+  0.267  0.504  0.446  0.057
  Li1782  Li1+  0.496  0.500  0.600  0.057
  Li1421  Li1+  0.531  0.067  0.140  0.057
  Li218  Li1+  0.131  0.333  0.460  0.058
  Li2416  Li1+  0.667  0.504  0.246  0.058
  Li3045  Li1+  0.931  0.267  0.740  0.058
  Li861  Li1+  0.331  0.267  0.140  0.059
  Li3289  Li1+  0.808  0.796  0.536  0.059
  Li2800  Li1+  0.771  0.904  0.853  0.059
  Li892  Li1+  0.333  0.396  0.346  0.060
  Li1275  Li1+  0.269  0.833  0.040  0.061
  Li2975  Li1+  0.829  0.204  0.247  0.062
  Li1248  Li1+  0.269  0.767  0.960  0.062
  Li3487  Li1+  0.869  0.833  0.840  0.063
  Li945  Li1+  0.331  0.267  0.740  0.063
  Li3018  Li1+  0.931  0.333  0.460  0.064
  Li1758  Li1+  0.531  0.533  0.460  0.064
  Li128  Li1+  0.069  0.167  0.960  0.065
  Li1729  Li1+  0.531  0.467  0.340  0.066
  Li2564  Li1+  0.669  0.767  0.360  0.066
  Li1464  Li1+  0.467  0.104  0.446  0.067
  Li1668  Li1+  0.469  0.367  0.960  0.068
  Li2296  Li1+  0.771  0.304  0.253  0.069
  Li2694  Li1+  0.608  0.804  0.264  0.069
  Li100  Li1+  0.069  0.167  0.760  0.071
  Li1836  Li1+  0.469  0.767  0.160  0.072
  Li180  Li1+  0.067  0.296  0.354  0.072
  Li1142  Li1+  0.331  0.733  0.060  0.073
  Li1617  Li1+  0.531  0.267  0.540  0.074
  Li1701  Li1+  0.531  0.467  0.140  0.074
  Li2197  Li1+  0.608  0.196  0.736  0.075
  Li939  Li1+  0.269  0.233  0.640  0.075
  Li1651  Li1+  0.571  0.296  0.747  0.076
  Li1198  Li1+  0.331  0.733  0.460  0.076
  Li911  Li1+  0.269  0.233  0.440  0.077
  Li8  Li1+  0.067  0.104  0.046  0.078
  Li414  Li1+  0.131  0.533  0.860  0.078
  Li2057  Li1+  0.408  0.996  0.736  0.079
  Li666  Li1+  0.131  0.933  0.660  0.079
  Li1814  Li1+  0.531  0.533  0.860  0.079
  Li3319  Li1+  0.869  0.633  0.640  0.079
  Li2815  Li1+  0.869  0.033  0.040  0.080
  Li694  Li1+  0.131  0.933  0.860  0.080
  Li323  Li1+  0.069  0.433  0.240  0.081
  Li1239  Li1+  0.229  0.604  0.847  0.081
  Li3205  Li1+  0.808  0.596  0.936  0.084
  Li36  Li1+  0.067  0.104  0.246  0.086
  Li3270  Li1+  0.931  0.733  0.260  0.086
  Li3376  Li1+  0.869  0.967  0.160  0.087
  Li1471  Li1+  0.469  0.033  0.440  0.087
  Li3325  Li1+  0.931  0.667  0.740  0.088
  Li1276  Li1+  0.269  0.967  0.160  0.088
  Li2719  Li1+  0.792  0.904  0.436  0.089
  Li2004  Li1+  0.469  0.967  0.360  0.089
  Li423  Li1+  0.192  0.704  0.036  0.090
  Li1640  Li1+  0.469  0.367  0.760  0.090
  Li2785  Li1+  0.608  0.996  0.936  0.091
  Li320  Li1+  0.067  0.496  0.354  0.091
  Li890  Li1+  0.331  0.333  0.260  0.091
  Li1499  Li1+  0.469  0.033  0.640  0.093
  Li2373  Li1+  0.731  0.267  0.940  0.093
  Li1011  Li1+  0.392  0.504  0.236  0.093
  Li322  Li1+  0.029  0.596  0.353  0.093
  Li520  Li1+  0.069  0.767  0.760  0.094
  Li1642  Li1+  0.496  0.300  0.600  0.095
  Li1704  Li1+  0.533  0.596  0.146  0.096
  Li2962  Li1+  0.931  0.333  0.060  0.098
  Li516  Li1+  0.067  0.696  0.754  0.098
  Li2009  Li1+  0.531  0.867  0.340  0.099
  Li2877  Li1+  0.931  0.067  0.540  0.100
  Li387  Li1+  0.133  0.404  0.654  0.100
  Li435  Li1+  0.069  0.633  0.040  0.100
  Li1527  Li1+  0.469  0.033  0.840  0.101
  Li3403  Li1+  0.869  0.833  0.240  0.101
  Li2598  Li1+  0.731  0.733  0.460  0.101
  Li3347  Li1+  0.869  0.633  0.840  0.102
  Li1263  Li1+  0.392  0.904  0.036  0.104
  Li841  Li1+  0.392  0.296  0.164  0.105
  Li1981  Li1+  0.531  0.867  0.140  0.106
  Li3046  Li1+  0.931  0.333  0.660  0.106
  Li2355  Li1+  0.792  0.304  0.836  0.106
  Li3488  Li1+  0.869  0.967  0.960  0.107
  Li2542  Li1+  0.731  0.733  0.060  0.107
  Li582  Li1+  0.131  0.933  0.060  0.107
  Li1569  Li1+  0.592  0.296  0.364  0.107
  Li2458  Li1+  0.731  0.533  0.460  0.108
  Li1312  Li1+  0.333  0.996  0.346  0.108
  Li632  Li1+  0.069  0.967  0.560  0.108
  Li2878  Li1+  0.931  0.133  0.460  0.109
  Li2732  Li1+  0.669  0.967  0.560  0.109
  Li986  Li1+  0.208  0.404  0.064  0.110
  Li2436  Li1+  0.771  0.504  0.253  0.110
  Li741  Li1+  0.208  0.196  0.336  0.111
  Li3186  Li1+  0.931  0.533  0.660  0.112
  Li217  Li1+  0.131  0.267  0.540  0.112
  Li1164  Li1+  0.269  0.767  0.360  0.112
  Li302  Li1+  0.131  0.533  0.060  0.112
  Li3401  Li1+  0.808  0.996  0.336  0.112
  Li1500  Li1+  0.469  0.167  0.760  0.113
  Li1870  Li1+  0.531  0.733  0.260  0.113
  Li240  Li1+  0.069  0.367  0.760  0.114
  Li687  Li1+  0.069  0.833  0.840  0.114
  Li715  Li1+  0.269  0.033  0.040  0.114
  Li352  Li1+  0.069  0.567  0.560  0.115
  Li2451  Li1+  0.669  0.433  0.440  0.115
  Li2317  Li1+  0.731  0.267  0.540  0.115
  Li3494  Li1+  0.931  0.933  0.860  0.116
  Li762  Li1+  0.208  0.004  0.464  0.116
  Li806  Li1+  0.331  0.133  0.660  0.116
  Li2765  Li1+  0.731  0.867  0.740  0.117
  Li2675  Li1+  0.669  0.833  0.040  0.117
  Li884  Li1+  0.269  0.367  0.360  0.119
  Li44  Li1+  0.069  0.167  0.360  0.123
  Li1282  Li1+  0.331  0.933  0.060  0.123
  Li2956  Li1+  0.869  0.367  0.160  0.124
  Li1543  Li1+  0.592  0.304  0.036  0.124
  Li1533  Li1+  0.531  0.067  0.940  0.125
  Li3102  Li1+  0.931  0.533  0.060  0.126
  Li2872  Li1+  0.869  0.167  0.560  0.127
  Li1477  Li1+  0.531  0.067  0.540  0.128
  Li3333  Li1+  0.992  0.696  0.964  0.128
  Li1304  Li1+  0.269  0.967  0.360  0.128
  Li413  Li1+  0.131  0.467  0.940  0.128
  Li255  Li1+  0.192  0.304  0.836  0.128
  Li351  Li1+  0.069  0.433  0.440  0.128
  Li2093  Li1+  0.531  0.867  0.940  0.128
  Li650  Li1+  0.008  0.804  0.664  0.128
  Li301  Li1+  0.131  0.467  0.140  0.129
  Li2737  Li1+  0.731  0.867  0.540  0.130
  Li1864  Li1+  0.469  0.767  0.360  0.130
  Li155  Li1+  0.069  0.233  0.040  0.130
  Li15  Li1+  0.069  0.033  0.040  0.131
  Li3241  Li1+  0.931  0.667  0.140  0.131
  Li209  Li1+  0.008  0.396  0.536  0.132
  Li1169  Li1+  0.331  0.667  0.340  0.132
  Li72  Li1+  0.069  0.167  0.560  0.133
  Li357  Li1+  0.131  0.467  0.540  0.133
  Li21  Li1+  0.131  0.067  0.140  0.133
  Li2318  Li1+  0.731  0.333  0.460  0.133
  Li2312  Li1+  0.669  0.367  0.560  0.133
  Li772  Li1+  0.269  0.167  0.560  0.133
  Li385  Li1+  0.131  0.467  0.740  0.133
  Li2682  Li1+  0.731  0.933  0.060  0.134
  Li554  Li1+  0.131  0.733  0.860  0.134
  Li3354  Li1+  0.931  0.733  0.860  0.135
  Li713  Li1+  0.208  0.196  0.136  0.135
  Li3445  Li1+  0.992  0.896  0.764  0.135
  Li1147  Li1+  0.371  0.696  0.147  0.135
  Li1581  Li1+  0.408  0.396  0.336  0.135
  Li2498  Li1+  0.608  0.404  0.864  0.136
  Li87  Li1+  0.192  0.104  0.636  0.137
  Li2078  Li1+  0.408  0.804  0.864  0.138
  Li2346  Li1+  0.731  0.333  0.660  0.138
  Li1171  Li1+  0.333  0.604  0.254  0.138
  Li2375  Li1+  0.733  0.204  0.854  0.139
  Li1021  Li1+  0.208  0.596  0.336  0.139
  Li367  Li1+  0.192  0.504  0.636  0.140
  Li1665  Li1+  0.408  0.396  0.936  0.141
  Li825  Li1+  0.208  0.196  0.936  0.143
  Li195  Li1+  0.171  0.296  0.347  0.143
  Li1898  Li1+  0.531  0.733  0.460  0.143
  Li1219  Li1+  0.269  0.633  0.640  0.146
  Li2701  Li1+  0.608  0.996  0.336  0.147
  Li3432  Li1+  0.869  0.967  0.560  0.147
  Li638  Li1+  0.131  0.933  0.460  0.147
  Li883  Li1+  0.269  0.233  0.240  0.147
  Li2241  Li1+  0.792  0.296  0.164  0.148
  Li386  Li1+  0.131  0.533  0.660  0.148
  Li3465  Li1+  0.931  0.867  0.740  0.149
  Li750  Li1+  0.331  0.133  0.260  0.149
  Li1309  Li1+  0.331  0.867  0.340  0.150
  Li1434  Li1+  0.408  0.004  0.264  0.150
  Li2228  Li1+  0.669  0.167  0.960  0.151
  Li133  Li1+  0.131  0.067  0.940  0.151
  Li749  Li1+  0.331  0.067  0.340  0.152
  Li927  Li1+  0.392  0.304  0.636  0.152
  Li2834  Li1+  0.808  0.004  0.264  0.152
  Li2001  Li1+  0.408  0.996  0.336  0.154
  Li199  Li1+  0.192  0.304  0.436  0.154
  Li50  Li1+  0.131  0.133  0.260  0.156
  Li1301  Li1+  0.208  0.996  0.336  0.156
  Li1618  Li1+  0.531  0.333  0.460  0.157
  Li777  Li1+  0.331  0.067  0.540  0.157
  Li1865  Li1+  0.504  0.600  0.300  0.157
  Li675  Li1+  0.192  0.904  0.836  0.158
  Li1001  Li1+  0.331  0.467  0.140  0.158
  Li2760  Li1+  0.669  0.967  0.760  0.158
  Li1505  Li1+  0.531  0.067  0.740  0.159
  Li940  Li1+  0.269  0.367  0.760  0.160
  Li1123  Li1+  0.392  0.704  0.036  0.161
  Li1106  Li1+  0.229  0.596  0.953  0.162
  Li2570  Li1+  0.731  0.733  0.260  0.162
  Li1948  Li1+  0.469  0.767  0.960  0.163
  Li1220  Li1+  0.269  0.767  0.760  0.164
  Li678  Li1+  0.008  0.804  0.864  0.164
  Li3067  Li1+  0.869  0.233  0.840  0.164
  Li2302  Li1+  0.608  0.204  0.464  0.164
  Li1135  Li1+  0.269  0.633  0.040  0.164
  Li1403  Li1+  0.592  0.104  0.036  0.165
  Li84  Li1+  0.171  0.104  0.453  0.165
  Li498  Li1+  0.131  0.733  0.460  0.165
  Li3025  Li1+  0.992  0.296  0.764  0.165
  Li470  Li1+  0.131  0.733  0.260  0.166
  Li3095  Li1+  0.869  0.433  0.040  0.166
  Li3340  Li1+  0.867  0.704  0.846  0.167
  Li1254  Li1+  0.331  0.733  0.860  0.167
  Li1973  Li1+  0.408  0.996  0.136  0.167
  Li2261  Li1+  0.731  0.267  0.140  0.168
  Li1441  Li1+  0.408  0.196  0.336  0.169
  Li1833  Li1+  0.408  0.796  0.136  0.169
  Li665  Li1+  0.131  0.867  0.740  0.169
  Li41  Li1+  0.008  0.196  0.336  0.170
  Li1176  Li1+  0.371  0.704  0.253  0.170
  Li2032  Li1+  0.469  0.967  0.560  0.171
  Li3136  Li1+  0.971  0.504  0.253  0.171
  Li1177  Li1+  0.392  0.696  0.564  0.171
  Li3373  Li1+  0.808  0.996  0.136  0.172
  Li1714  Li1+  0.408  0.404  0.264  0.172
  Li2017  Li1+  0.592  0.896  0.564  0.173
  Li1907  Li1+  0.592  0.704  0.636  0.173
  Li996  Li1+  0.269  0.567  0.160  0.175
  Li1197  Li1+  0.331  0.667  0.540  0.175
  Li517  Li1+  0.008  0.796  0.736  0.176
  Li1991  Li1+  0.592  0.904  0.236  0.176
  Li2115  Li1+  0.669  0.033  0.040  0.176
  Li190  Li1+  0.131  0.333  0.260  0.177
  Li2424  Li1+  0.669  0.567  0.360  0.177
  Li2367  Li1+  0.669  0.233  0.840  0.177
  Li185  Li1+  0.104  0.200  0.300  0.178
  Li2582  Li1+  0.608  0.604  0.464  0.178
  Li805  Li1+  0.331  0.067  0.740  0.178
  Li3478  Li1+  0.808  0.804  0.864  0.179
  Li3394  Li1+  0.808  0.804  0.264  0.180
  Li295  Li1+  0.069  0.433  0.040  0.181
  Li1133  Li1+  0.208  0.796  0.136  0.181
  Li1002  Li1+  0.331  0.533  0.060  0.182
  Li2485  Li1+  0.731  0.467  0.740  0.182
  Li2647  Li1+  0.669  0.633  0.840  0.182
  Li2953  Li1+  0.808  0.396  0.136  0.183
  Li1469  Li1+  0.408  0.196  0.536  0.183
  Li2431  Li1+  0.733  0.404  0.254  0.183
  Li2508  Li1+  0.669  0.567  0.960  0.184
  Li729  Li1+  0.392  0.096  0.364  0.184
  Li3226  Li1+  0.808  0.604  0.064  0.184
  Li1233  Li1+  0.392  0.696  0.964  0.184
  Li1351  Li1+  0.229  0.804  0.647  0.185
  Li507  Li1+  0.192  0.704  0.636  0.186
  Li3053  Li1+  0.992  0.296  0.964  0.186
  Li1989  Li1+  0.592  0.896  0.364  0.186
  Li181  Li1+  0.008  0.396  0.336  0.186
  Li1863  Li1+  0.469  0.633  0.240  0.187
  Li2757  Li1+  0.608  0.996  0.736  0.187
  Li1332  Li1+  0.269  0.967  0.560  0.187
  Li925  Li1+  0.392  0.296  0.764  0.187
  Li2325  Li1+  0.792  0.296  0.764  0.187
  Li2255  Li1+  0.669  0.233  0.040  0.188
  Li958  Li1+  0.208  0.204  0.864  0.188
  Li286  Li1+  0.008  0.404  0.064  0.188
  Li1602  Li1+  0.408  0.204  0.464  0.188
  Li3431  Li1+  0.869  0.833  0.440  0.189
  Li162  Li1+  0.131  0.333  0.060  0.189
  Li2205  Li1+  0.731  0.067  0.740  0.190
  Li2999  Li1+  0.992  0.304  0.436  0.191
  Li2337  Li1+  0.608  0.396  0.736  0.191
  Li983  Li1+  0.392  0.504  0.036  0.191
  Li3264  Li1+  0.869  0.767  0.360  0.192
  Li2457  Li1+  0.731  0.467  0.540  0.192
  Li2857  Li1+  0.992  0.096  0.564  0.192
  Li2402  Li1+  0.731  0.533  0.060  0.193
  Li609  Li1+  0.131  0.867  0.340  0.193
  Li3305  Li1+  0.992  0.696  0.764  0.193
  Li1702  Li1+  0.531  0.533  0.060  0.193
  Li563  Li1+  0.192  0.904  0.036  0.195
  Li1136  Li1+  0.269  0.767  0.160  0.195
  Li1925  Li1+  0.531  0.667  0.740  0.195
  Li156  Li1+  0.069  0.367  0.160  0.196
  Li2927  Li1+  0.869  0.033  0.840  0.196
  Li1086  Li1+  0.331  0.533  0.660  0.196
  Li2073  Li1+  0.592  0.896  0.964  0.197
  Li197  Li1+  0.192  0.296  0.564  0.197
  Li2218  Li1+  0.608  0.004  0.864  0.197
  Li1490  Li1+  0.408  0.004  0.664  0.197
  Li2066  Li1+  0.531  0.933  0.660  0.198
  Li265  Li1+  0.008  0.396  0.936  0.198
  Li2869  Li1+  0.808  0.196  0.536  0.198
  Li2467  Li1+  0.792  0.504  0.636  0.199
  Li1266  Li1+  0.208  0.804  0.064  0.199
  Li2442  Li1+  0.608  0.404  0.464  0.199
  Li3170  Li1+  0.808  0.404  0.664  0.199
  Li2663  Li1+  0.792  0.904  0.036  0.200
  Li1365  Li1+  0.331  0.867  0.740  0.201
  Li6  Li1+  0.008  0.004  0.064  0.201
  Li2394  Li1+  0.629  0.596  0.153  0.201
  Li610  Li1+  0.131  0.933  0.260  0.202
  Li1337  Li1+  0.331  0.867  0.540  0.202
  Li2309  Li1+  0.608  0.396  0.536  0.202
  Li2984  Li1+  0.869  0.367  0.360  0.203
  Li3198  Li1+  0.808  0.404  0.864  0.203
  Li395  Li1+  0.192  0.504  0.836  0.204
  Li3180  Li1+  0.869  0.567  0.760  0.204
  Li1339  Li1+  0.333  0.804  0.454  0.205
  Li1584  Li1+  0.469  0.367  0.360  0.205
  Li2088  Li1+  0.469  0.967  0.960  0.206
  Li174  Li1+  0.008  0.204  0.264  0.207
  Li2429  Li1+  0.731  0.467  0.340  0.207
  Li917  Li1+  0.331  0.267  0.540  0.208
  Li1798  Li1+  0.408  0.404  0.864  0.208
  Li1920  Li1+  0.469  0.767  0.760  0.209
  Li230  Li1+  0.008  0.204  0.664  0.210
  Li2689  Li1+  0.792  0.896  0.364  0.211
  Li1683  Li1+  0.592  0.504  0.036  0.211
  Li2933  Li1+  0.931  0.067  0.940  0.211
  Li1597  Li1+  0.592  0.296  0.564  0.212
  Li1191  Li1+  0.269  0.633  0.440  0.212
  Li3279  Li1+  0.992  0.704  0.436  0.212
  Li2169  Li1+  0.608  0.196  0.536  0.212
  Li2843  Li1+  0.869  0.033  0.240  0.212
  Li1938  Li1+  0.408  0.604  0.864  0.214
  Li2495  Li1+  0.792  0.504  0.836  0.214
  Li2747  Li1+  0.792  0.904  0.636  0.214
  Li405  Li1+  0.008  0.596  0.936  0.214
  Li2990  Li1+  0.931  0.333  0.260  0.215
  Li2122  Li1+  0.731  0.133  0.060  0.215
  Li2717  Li1+  0.792  0.896  0.564  0.216
  Li29  Li1+  0.192  0.096  0.364  0.217
  Li1724  Li1+  0.469  0.567  0.360  0.218
  Li1414  Li1+  0.429  0.196  0.153  0.218
  Li3142  Li1+  0.808  0.404  0.464  0.220
  Li330  Li1+  0.131  0.533  0.260  0.220
  Li2535  Li1+  0.669  0.633  0.040  0.220
  Li1163  Li1+  0.269  0.633  0.240  0.222
  Li1513  Li1+  0.592  0.096  0.964  0.223
  Li1709  Li1+  0.592  0.496  0.364  0.224
  Li314  Li1+  0.008  0.404  0.264  0.224
  Li3381  Li1+  0.931  0.867  0.140  0.224
  Li2421  Li1+  0.608  0.596  0.336  0.226
  Li43  Li1+  0.069  0.033  0.240  0.226
  Li63  Li1+  0.029  0.004  0.447  0.226
  Li1065  Li1+  0.392  0.496  0.764  0.226
  Li553  Li1+  0.131  0.667  0.940  0.226
  Li603  Li1+  0.069  0.833  0.240  0.227
  Li349  Li1+  0.008  0.596  0.536  0.227
  Li787  Li1+  0.392  0.104  0.636  0.227
  Li1182  Li1+  0.208  0.604  0.464  0.228
  Li2654  Li1+  0.731  0.733  0.860  0.228
  Li3317  Li1+  0.808  0.796  0.736  0.228
  Li546  Li1+  0.029  0.796  0.953  0.228
  Li1235  Li1+  0.392  0.704  0.836  0.228
  Li2368  Li1+  0.669  0.367  0.960  0.228
  Li2381  Li1+  0.792  0.496  0.164  0.228
  Li902  Li1+  0.208  0.204  0.464  0.229
  Li647  Li1+  0.192  0.904  0.636  0.229
  Li358  Li1+  0.131  0.533  0.460  0.229
  Li685  Li1+  0.008  0.996  0.936  0.230
  Li3208  Li1+  0.869  0.567  0.960  0.231
  Li69  Li1+  0.008  0.196  0.536  0.232
  Li3375  Li1+  0.869  0.833  0.040  0.233
  Li2437  Li1+  0.792  0.496  0.564  0.233
  Li253  Li1+  0.192  0.296  0.964  0.234
  Li2116  Li1+  0.669  0.167  0.160  0.235
  Li2955  Li1+  0.869  0.233  0.040  0.235
  Li469  Li1+  0.131  0.667  0.340  0.235
  Li2486  Li1+  0.731  0.533  0.660  0.235
  Li2850  Li1+  0.931  0.133  0.260  0.236
  Li2460  Li1+  0.733  0.596  0.546  0.237
  Li1126  Li1+  0.208  0.604  0.064  0.238
  Li2549  Li1+  0.792  0.696  0.364  0.238
  Li451  Li1+  0.192  0.704  0.236  0.240
  Li3298  Li1+  0.931  0.733  0.460  0.240
  Li426  Li1+  0.008  0.604  0.064  0.242
  Li1891  Li1+  0.469  0.633  0.440  0.242
  Li3466  Li1+  0.931  0.933  0.660  0.243
  Li1024  Li1+  0.269  0.567  0.360  0.244
  Li3167  Li1+  0.992  0.504  0.636  0.245
  Li441  Li1+  0.131  0.667  0.140  0.245
  Li2541  Li1+  0.731  0.667  0.140  0.246
  Li993  Li1+  0.208  0.596  0.136  0.246
  Li1919  Li1+  0.469  0.633  0.640  0.247
  Li2619  Li1+  0.669  0.633  0.640  0.248
  Li1497  Li1+  0.408  0.196  0.736  0.248
  Li1763  Li1+  0.571  0.496  0.547  0.248
  Li1534  Li1+  0.531  0.133  0.860  0.248
  Li2143  Li1+  0.669  0.033  0.240  0.248
  Li1667  Li1+  0.469  0.233  0.840  0.249
  Li1310  Li1+  0.331  0.933  0.260  0.249
  Li2139  Li1+  0.692  0.104  0.264  0.249
  Li2626  Li1+  0.731  0.733  0.660  0.250
  Li1506  Li1+  0.531  0.133  0.660  0.250
  Li3326  Li1+  0.931  0.733  0.660  0.250
  Li3068  Li1+  0.869  0.367  0.960  0.251
  Li2928  Li1+  0.869  0.167  0.960  0.252
  Li1695  Li1+  0.469  0.433  0.040  0.252
  Li113  Li1+  0.192  0.096  0.964  0.252
  Li2943  Li1+  0.992  0.304  0.036  0.253
  Li1954  Li1+  0.531  0.733  0.860  0.253
  Li2961  Li1+  0.931  0.267  0.140  0.254
  Li461  Li1+  0.008  0.796  0.336  0.254
  Li937  Li1+  0.208  0.396  0.736  0.254
  Li3460  Li1+  0.869  0.967  0.760  0.254
  Li1574  Li1+  0.408  0.204  0.264  0.255
  Li2822  Li1+  0.931  0.133  0.060  0.255
  Li2871  Li1+  0.869  0.033  0.440  0.255
  Li889  Li1+  0.331  0.267  0.340  0.255
  Li930  Li1+  0.208  0.204  0.664  0.256
  Li492  Li1+  0.069  0.767  0.560  0.256
  Li1851  Li1+  0.592  0.704  0.236  0.256
  Li533  Li1+  0.192  0.696  0.964  0.256
  Li1721  Li1+  0.408  0.596  0.336  0.257
  Li757  Li1+  0.392  0.096  0.564  0.257
  Li637  Li1+  0.131  0.867  0.540  0.257
  Li2849  Li1+  0.931  0.067  0.340  0.257
  Li2371  Li1+  0.708  0.204  0.836  0.258
  Li3009  Li1+  0.808  0.396  0.536  0.258
  Li1035  Li1+  0.371  0.496  0.347  0.258
  Li2513  Li1+  0.731  0.467  0.940  0.258
  Li2246  Li1+  0.608  0.204  0.064  0.258
  Li1372  Li1+  0.371  0.904  0.653  0.258
  Li2274  Li1+  0.608  0.204  0.264  0.259
  Li3096  Li1+  0.869  0.567  0.160  0.259
  Li1210  Li1+  0.208  0.604  0.664  0.259
  Li1345  Li1+  0.392  0.896  0.764  0.260
  Li899  Li1+  0.392  0.304  0.436  0.260
  Li3234  Li1+  0.829  0.796  0.153  0.262
  Li232  Li1+  0.067  0.304  0.646  0.262
  Li1107  Li1+  0.269  0.433  0.840  0.262
  Li2526  Li1+  0.608  0.604  0.064  0.262
  Li1905  Li1+  0.592  0.696  0.764  0.262
  Li2905  Li1+  0.931  0.067  0.740  0.262
  Li3185  Li1+  0.931  0.467  0.740  0.263
  Li1805  Li1+  0.408  0.596  0.936  0.263
  Li3269  Li1+  0.931  0.667  0.340  0.263
  Li522  Li1+  0.096  0.700  0.600  0.263
  Li3409  Li1+  0.931  0.867  0.340  0.264
  Li1967  Li1+  0.429  0.804  0.047  0.264
  Li2225  Li1+  0.608  0.196  0.936  0.264
  Li2383  Li1+  0.792  0.504  0.036  0.264
  Li1528  Li1+  0.469  0.167  0.960  0.264
  Li2759  Li1+  0.669  0.833  0.640  0.264
  Li1674  Li1+  0.531  0.333  0.860  0.264
  Li1462  Li1+  0.408  0.004  0.464  0.265
  Li1401  Li1+  0.592  0.096  0.164  0.265
  Li1795  Li1+  0.592  0.504  0.836  0.265
  Li2085  Li1+  0.408  0.996  0.936  0.266
  Li377  Li1+  0.008  0.596  0.736  0.266
  Li2019  Li1+  0.592  0.904  0.436  0.266
  Li339  Li1+  0.192  0.504  0.436  0.268
  Li2536  Li1+  0.669  0.767  0.160  0.268
  Li800  Li1+  0.269  0.167  0.760  0.269
  Li449  Li1+  0.192  0.696  0.364  0.269
  Li1739  Li1+  0.592  0.504  0.436  0.269
  Li663  Li1+  0.108  0.804  0.636  0.270
  Li2666  Li1+  0.608  0.804  0.064  0.271
  Li3083  Li1+  0.992  0.504  0.036  0.271
  Li252  Li1+  0.171  0.304  0.653  0.271
  Li342  Li1+  0.008  0.404  0.464  0.272
  Li1953  Li1+  0.531  0.667  0.940  0.272
  Li1113  Li1+  0.331  0.467  0.940  0.272
  Li3475  Li1+  0.992  0.904  0.836  0.273
  Li3263  Li1+  0.869  0.633  0.240  0.273
  Li380  Li1+  0.069  0.567  0.760  0.275
  Li2353  Li1+  0.792  0.296  0.964  0.276
  Li657  Li1+  0.008  0.996  0.736  0.276
  Li57  Li1+  0.192  0.096  0.564  0.276
  Li67  Li1+  0.092  0.104  0.464  0.277
  Li436  Li1+  0.069  0.767  0.160  0.277
  Li2480  Li1+  0.669  0.567  0.760  0.277
  Li337  Li1+  0.192  0.496  0.564  0.278
  Li2816  Li1+  0.869  0.167  0.160  0.278
  Li211  Li1+  0.069  0.233  0.440  0.278
  Li3382  Li1+  0.931  0.933  0.060  0.278
  Li1556  Li1+  0.469  0.367  0.160  0.279
  Li2681  Li1+  0.731  0.867  0.140  0.280
  Li1388  Li1+  0.269  0.967  0.960  0.280
  Li2477  Li1+  0.608  0.596  0.736  0.280
  Li2279  Li1+  0.692  0.304  0.264  0.281
  Li281  Li1+  0.192  0.496  0.164  0.282
  Li2289  Li1+  0.731  0.267  0.340  0.283
  Li3422  Li1+  0.808  0.804  0.464  0.283
  Li125  Li1+  0.008  0.196  0.936  0.284
  Li631  Li1+  0.069  0.833  0.440  0.284
  Li399  Li1+  0.029  0.404  0.847  0.284
  Li153  Li1+  0.008  0.396  0.136  0.285
  Li1841  Li1+  0.531  0.667  0.140  0.286
  Li2212  Li1+  0.771  0.104  0.653  0.286
  Li547  Li1+  0.069  0.633  0.840  0.286
  Li2185  Li1+  0.792  0.096  0.764  0.287
  Li874  Li1+  0.208  0.204  0.264  0.288
  Li706  Li1+  0.208  0.004  0.064  0.288
  Li393  Li1+  0.192  0.496  0.964  0.290
  Li542  Li1+  0.092  0.696  0.936  0.291
  Li1875  Li1+  0.571  0.696  0.347  0.292
  Li3040  Li1+  0.869  0.367  0.760  0.292
  Li2731  Li1+  0.669  0.833  0.440  0.293
  Li897  Li1+  0.392  0.296  0.564  0.293
  Li479  Li1+  0.192  0.704  0.436  0.293
  Li1826  Li1+  0.408  0.604  0.064  0.294
  Li968  Li1+  0.269  0.367  0.960  0.294
  Li3310  Li1+  0.808  0.604  0.664  0.295
  Li3485  Li1+  0.808  0.996  0.936  0.295
  Li1450  Li1+  0.531  0.133  0.260  0.296
  Li2415  Li1+  0.629  0.404  0.247  0.297
  Li2729  Li1+  0.608  0.996  0.536  0.297
  Li2299  Li1+  0.792  0.304  0.436  0.297
  Li3361  Li1+  0.992  0.896  0.164  0.299
  Li2806  Li1+  0.808  0.004  0.064  0.299
  Li146  Li1+  0.008  0.204  0.064  0.299
  Li769  Li1+  0.208  0.196  0.536  0.299
  Li2023  Li1+  0.429  0.804  0.447  0.299
  Li1879  Li1+  0.592  0.704  0.436  0.300
  Li1189  Li1+  0.208  0.796  0.536  0.300
  Li667  Li1+  0.133  0.804  0.654  0.301
  Li3030  Li1+  0.808  0.204  0.664  0.301
  Li619  Li1+  0.192  0.904  0.436  0.301
  Li97  Li1+  0.008  0.196  0.736  0.301
  Li2239  Li1+  0.771  0.096  0.947  0.301
  Li2635  Li1+  0.792  0.704  0.836  0.301
  Li2646  Li1+  0.629  0.796  0.953  0.301
  Li2471  Li1+  0.629  0.404  0.647  0.302
  Li1897  Li1+  0.531  0.667  0.540  0.302
  Li511  Li1+  0.029  0.604  0.647  0.303
  Li1518  Li1+  0.408  0.004  0.864  0.304
  Li1112  Li1+  0.308  0.596  0.964  0.304
  Li3011  Li1+  0.869  0.233  0.440  0.304
  Li2900  Li1+  0.869  0.167  0.760  0.305
  Li1553  Li1+  0.408  0.396  0.136  0.306
  Li202  Li1+  0.008  0.204  0.464  0.306
  Li2195  Li1+  0.692  0.104  0.664  0.307
  Li1057  Li1+  0.331  0.467  0.540  0.307
  Li827  Li1+  0.269  0.033  0.840  0.307
  Li2844  Li1+  0.869  0.167  0.360  0.307
  Li1154  Li1+  0.208  0.604  0.264  0.307
  Li3017  Li1+  0.931  0.267  0.540  0.308
  Li2029  Li1+  0.408  0.996  0.536  0.309
  Li799  Li1+  0.269  0.033  0.640  0.309
  Li1294  Li1+  0.208  0.804  0.264  0.309
  Li839  Li1+  0.371  0.096  0.947  0.309
  Li1358  Li1+  0.229  0.996  0.753  0.309
  Li1161  Li1+  0.208  0.796  0.336  0.310
  Li1232  Li1+  0.371  0.704  0.653  0.310
  Li267  Li1+  0.069  0.233  0.840  0.311
  Li1786  Li1+  0.531  0.533  0.660  0.312
  Li2551  Li1+  0.792  0.704  0.236  0.314
  Li840  Li1+  0.371  0.104  0.853  0.314
  Li868  Li1+  0.371  0.304  0.053  0.315
  Li1273  Li1+  0.208  0.996  0.136  0.315
  Li3249  Li1+  0.992  0.696  0.364  0.315
  Li2899  Li1+  0.869  0.033  0.640  0.315
  Li2521  Li1+  0.792  0.696  0.164  0.316
  Li604  Li1+  0.069  0.967  0.360  0.316
  Li3129  Li1+  0.931  0.467  0.340  0.316
  Li365  Li1+  0.192  0.496  0.764  0.316
  Li2386  Li1+  0.608  0.404  0.064  0.316
  Li3158  Li1+  0.931  0.533  0.460  0.317
  Li622  Li1+  0.008  0.804  0.464  0.317
  Li1158  Li1+  0.292  0.696  0.336  0.317
  Li2094  Li1+  0.531  0.933  0.860  0.318
  Li1525  Li1+  0.408  0.196  0.936  0.319
  Li1988  Li1+  0.571  0.904  0.053  0.319
  Li1331  Li1+  0.269  0.833  0.440  0.320
  Li722  Li1+  0.331  0.133  0.060  0.320
  Li2750  Li1+  0.608  0.804  0.664  0.320
  Li2925  Li1+  0.808  0.196  0.936  0.321
  Li1791  Li1+  0.571  0.496  0.747  0.322
  Li3366  Li1+  0.808  0.804  0.064  0.322
  Li912  Li1+  0.269  0.367  0.560  0.323
  Li1681  Li1+  0.592  0.496  0.164  0.323
  Li3335  Li1+  0.992  0.704  0.836  0.323
  Li3127  Li1+  0.908  0.404  0.236  0.325
  Li1400  Li1+  0.371  0.904  0.853  0.326
  Li535  Li1+  0.192  0.704  0.836  0.326
  Li1329  Li1+  0.208  0.996  0.536  0.326
  Li105  Li1+  0.131  0.067  0.740  0.327
  Li2745  Li1+  0.792  0.896  0.764  0.327
  Li1317  Li1+  0.392  0.896  0.564  0.328
  Li1289  Li1+  0.392  0.896  0.364  0.328
  Li566  Li1+  0.008  0.804  0.064  0.328
  Li3292  Li1+  0.869  0.767  0.560  0.328
  Li871  Li1+  0.392  0.304  0.236  0.328
  Li3242  Li1+  0.931  0.733  0.060  0.329
  Li980  Li1+  0.371  0.304  0.853  0.330
  Li2256  Li1+  0.669  0.367  0.160  0.331
  Li3213  Li1+  0.931  0.467  0.940  0.331
  Li2610  Li1+  0.608  0.604  0.664  0.332
  Li1064  Li1+  0.371  0.504  0.453  0.332
  Li3027  Li1+  0.992  0.304  0.636  0.332
  Li31  Li1+  0.192  0.104  0.236  0.332
  Li1245  Li1+  0.208  0.796  0.936  0.333
  Li617  Li1+  0.192  0.896  0.564  0.333
  Li3254  Li1+  0.808  0.604  0.264  0.333
  Li525  Li1+  0.131  0.667  0.740  0.333
  Li1610  Li1+  0.429  0.396  0.553  0.333
  Li283  Li1+  0.192  0.504  0.036  0.334
  Li576  Li1+  0.069  0.967  0.160  0.334
  Li3221  Li1+  0.992  0.696  0.164  0.334
  Li1547  Li1+  0.429  0.204  0.047  0.334
  Li2121  Li1+  0.731  0.067  0.140  0.335
  Li1399  Li1+  0.371  0.896  0.947  0.335
  Li1889  Li1+  0.408  0.796  0.536  0.336
  Li1023  Li1+  0.269  0.433  0.240  0.336
  Li2523  Li1+  0.792  0.704  0.036  0.336
  Li2821  Li1+  0.931  0.067  0.140  0.337
  Li1457  Li1+  0.592  0.096  0.564  0.338
  Li1861  Li1+  0.408  0.796  0.336  0.338
  Li3074  Li1+  0.931  0.333  0.860  0.338
  Li1052  Li1+  0.269  0.567  0.560  0.339
  Li3296  Li1+  0.908  0.796  0.564  0.339
  Li1407  Li1+  0.429  0.004  0.047  0.340
  Li727  Li1+  0.371  0.096  0.147  0.340
  Li881  Li1+  0.208  0.396  0.336  0.341
  Li2577  Li1+  0.792  0.696  0.564  0.341
  Li2913  Li1+  0.992  0.096  0.964  0.342
  Li3410  Li1+  0.931  0.933  0.260  0.343
  Li1567  Li1+  0.571  0.296  0.147  0.343
  Li2653  Li1+  0.731  0.667  0.940  0.344
  Li2365  Li1+  0.608  0.396  0.936  0.345
  Li711  Li1+  0.292  0.104  0.064  0.345
  Li28  Li1+  0.171  0.104  0.053  0.345
  Li1982  Li1+  0.531  0.933  0.060  0.345
  Li743  Li1+  0.269  0.033  0.240  0.345
  Li1  Li1+  0.192  0.096  0.164  0.346
  Li3107  Li1+  0.971  0.496  0.147  0.346
  Li2801  Li1+  0.992  0.096  0.164  0.346
  Li421  Li1+  0.192  0.696  0.164  0.346
  Li1599  Li1+  0.592  0.304  0.436  0.346
  Li2948  Li1+  0.867  0.304  0.046  0.347
  Li1696  Li1+  0.469  0.567  0.160  0.347
  Li581  Li1+  0.131  0.867  0.140  0.347
  Li2787  Li1+  0.669  0.833  0.840  0.350
  Li2262  Li1+  0.731  0.333  0.060  0.351
  Li1854  Li1+  0.408  0.604  0.264  0.351
  Li235  Li1+  0.092  0.304  0.664  0.351
  Li1159  Li1+  0.292  0.704  0.264  0.352
  Li2997  Li1+  0.992  0.296  0.564  0.352
  Li3303  Li1+  0.971  0.696  0.547  0.352
  Li981  Li1+  0.392  0.496  0.164  0.352
  Li2439  Li1+  0.792  0.504  0.436  0.353
  Li2144  Li1+  0.669  0.167  0.360  0.353
  Li589  Li1+  0.192  0.896  0.364  0.354
  Li3457  Li1+  0.808  0.996  0.736  0.355
  Li1673  Li1+  0.531  0.267  0.940  0.355
  Li1910  Li1+  0.408  0.604  0.664  0.355
  Li1383  Li1+  0.292  0.904  0.864  0.357
  Li1639  Li1+  0.469  0.233  0.640  0.357
  Li489  Li1+  0.008  0.796  0.536  0.357
  Li3152  Li1+  0.869  0.567  0.560  0.357
  Li601  Li1+  0.008  0.996  0.336  0.357
  Li2620  Li1+  0.669  0.767  0.760  0.358
  Li503  Li1+  0.171  0.696  0.547  0.359
  Li3214  Li1+  0.931  0.533  0.860  0.359
  Li1596  Li1+  0.571  0.304  0.253  0.360
  Li1281  Li1+  0.331  0.867  0.140  0.360
  Li1751  Li1+  0.469  0.433  0.440  0.361
  Li855  Li1+  0.269  0.233  0.040  0.361
  Li1449  Li1+  0.531  0.067  0.340  0.361
  Li2831  Li1+  0.992  0.104  0.236  0.361
  Li2995  Li1+  0.971  0.296  0.347  0.362
  Li3035  Li1+  0.892  0.304  0.664  0.362
  Li463  Li1+  0.069  0.633  0.240  0.362
  Li2555  Li1+  0.629  0.604  0.247  0.362
  Li645  Li1+  0.192  0.896  0.764  0.362
  Li660  Li1+  0.069  0.967  0.760  0.363
  Li2113  Li1+  0.608  0.196  0.136  0.363
  Li2240  Li1+  0.771  0.104  0.853  0.364
  Li1114  Li1+  0.331  0.533  0.860  0.364
  Li486  Li1+  0.092  0.696  0.536  0.364
  Li731  Li1+  0.392  0.104  0.236  0.366
  Li16  Li1+  0.069  0.167  0.160  0.367
  Li2674  Li1+  0.629  0.996  0.153  0.367
  Li2047  Li1+  0.592  0.904  0.636  0.367
  Li573  Li1+  0.008  0.996  0.136  0.369
  Li2592  Li1+  0.669  0.767  0.560  0.369
  Li2586  Li1+  0.692  0.696  0.536  0.370
  Li3086  Li1+  0.808  0.404  0.064  0.370
  Li2106  Li1+  0.608  0.004  0.064  0.371
  Li2199  Li1+  0.669  0.033  0.640  0.371
  Li1658  Li1+  0.408  0.204  0.864  0.372
  Li1961  Li1+  0.592  0.896  0.164  0.372
  Li491  Li1+  0.069  0.633  0.440  0.372
  Li3124  Li1+  0.869  0.567  0.360  0.373
  Li2450  Li1+  0.629  0.596  0.553  0.373
  Li1484  Li1+  0.571  0.104  0.453  0.373
  Li822  Li1+  0.292  0.096  0.936  0.374
  Li3429  Li1+  0.808  0.996  0.536  0.374
  Li3157  Li1+  0.931  0.467  0.540  0.374
  Li1935  Li1+  0.592  0.704  0.836  0.375
  Li1842  Li1+  0.531  0.733  0.060  0.376
  Li1792  Li1+  0.571  0.504  0.653  0.376
  Li1067  Li1+  0.392  0.504  0.636  0.377
  Li2716  Li1+  0.771  0.904  0.253  0.377
  Li2327  Li1+  0.792  0.304  0.636  0.378
  Li2269  Li1+  0.792  0.296  0.364  0.378
  Li2648  Li1+  0.669  0.767  0.960  0.378
  Li759  Li1+  0.392  0.104  0.436  0.378
  Li1487  Li1+  0.592  0.104  0.636  0.379
  Li1316  Li1+  0.371  0.904  0.253  0.380
  Li1455  Li1+  0.571  0.096  0.347  0.380
  Li119  Li1+  0.029  0.004  0.847  0.380
  Li1515  Li1+  0.592  0.104  0.836  0.380
  Li2065  Li1+  0.531  0.867  0.740  0.381
  Li2330  Li1+  0.608  0.204  0.664  0.381
  Li411  Li1+  0.108  0.404  0.836  0.382
  Li1149  Li1+  0.392  0.696  0.364  0.382
  Li2918  Li1+  0.808  0.004  0.864  0.383
  Li538  Li1+  0.008  0.604  0.864  0.384
  Li1779  Li1+  0.469  0.433  0.640  0.385
  Li2297  Li1+  0.792  0.296  0.564  0.386
  Li335  Li1+  0.171  0.496  0.347  0.386
  Li1579  Li1+  0.492  0.304  0.264  0.386
  Li1813  Li1+  0.531  0.467  0.940  0.387
  Li2268  Li1+  0.771  0.304  0.053  0.388
  Li2358  Li1+  0.608  0.204  0.864  0.389
  Li3193  Li1+  0.992  0.496  0.964  0.389
  Li2284  Li1+  0.669  0.367  0.360  0.391
  Li2155  Li1+  0.771  0.096  0.347  0.392
  Li2607  Li1+  0.792  0.704  0.636  0.393
  Li909  Li1+  0.208  0.396  0.536  0.393
  Li798  Li1+  0.229  0.196  0.753  0.394
  Li143  Li1+  0.192  0.304  0.036  0.395
  Li2579  Li1+  0.792  0.704  0.436  0.395
  Li3391  Li1+  0.992  0.904  0.236  0.395
  Li1322  Li1+  0.208  0.804  0.464  0.395
  Li1743  Li1+  0.429  0.404  0.447  0.398
  Li2885  Li1+  0.992  0.096  0.764  0.398
  Li2178  Li1+  0.731  0.133  0.460  0.399
  Li3165  Li1+  0.992  0.496  0.764  0.399
  Li3338  Li1+  0.808  0.604  0.864  0.399
  Li99  Li1+  0.069  0.033  0.640  0.400
  Li1975  Li1+  0.469  0.833  0.040  0.401
  Li2597  Li1+  0.731  0.667  0.540  0.403
  Li3139  Li1+  0.992  0.504  0.436  0.404
  Li3307  Li1+  0.992  0.704  0.636  0.404
  Li1387  Li1+  0.269  0.833  0.840  0.404
  Li2631  Li1+  0.771  0.696  0.747  0.404
  Li1750  Li1+  0.429  0.596  0.553  0.404
  Li85  Li1+  0.192  0.096  0.764  0.405
  Li2400  Li1+  0.708  0.596  0.164  0.406
  Li846  Li1+  0.208  0.204  0.064  0.406
  Li1049  Li1+  0.208  0.596  0.536  0.406
  Li1686  Li1+  0.408  0.404  0.064  0.406
  Li2134  Li1+  0.608  0.004  0.264  0.407
  Li2409  Li1+  0.792  0.496  0.364  0.408
  Li2493  Li1+  0.792  0.496  0.964  0.408
  Li3295  Li1+  0.908  0.604  0.436  0.408
  Li2710  Li1+  0.731  0.933  0.260  0.408
  Li3283  Li1+  0.829  0.604  0.447  0.409
  Li1780  Li1+  0.469  0.567  0.760  0.409
  Li734  Li1+  0.208  0.004  0.264  0.411
  Li1051  Li1+  0.269  0.433  0.440  0.411
  Li2533  Li1+  0.608  0.796  0.136  0.413
  Li245  Li1+  0.131  0.267  0.740  0.414
  Li140  Li1+  0.171  0.104  0.853  0.415
  Li127  Li1+  0.069  0.033  0.840  0.415
  Li2971  Li1+  0.992  0.304  0.236  0.415
  Li3177  Li1+  0.808  0.596  0.736  0.416
  Li2590  Li1+  0.629  0.796  0.553  0.416
  Li2419  Li1+  0.692  0.504  0.264  0.417
  Li1634  Li1+  0.492  0.296  0.736  0.417
  Li3063  Li1+  0.892  0.304  0.864  0.418
  Li856  Li1+  0.269  0.367  0.160  0.419
  Li1037  Li1+  0.392  0.496  0.564  0.419
  Li3261  Li1+  0.808  0.796  0.336  0.420
  Li1058  Li1+  0.331  0.533  0.460  0.420
  Li1385  Li1+  0.208  0.996  0.936  0.421
  Li2101  Li1+  0.792  0.096  0.164  0.422
  Li1646  Li1+  0.531  0.333  0.660  0.422
  Li3472  Li1+  0.971  0.904  0.653  0.422
  Li708  Li1+  0.267  0.104  0.046  0.424
  Li3122  Li1+  0.829  0.596  0.353  0.424
  Li591  Li1+  0.192  0.904  0.236  0.424
  Li1231  Li1+  0.371  0.696  0.747  0.425
  Li383  Li1+  0.108  0.404  0.636  0.425
  Li1087  Li1+  0.333  0.404  0.654  0.426
  Li1179  Li1+  0.392  0.704  0.436  0.426
  Li3080  Li1+  0.971  0.304  0.853  0.426
  Li2128  Li1+  0.771  0.104  0.053  0.428
  Li2505  Li1+  0.608  0.596  0.936  0.428
  Li2625  Li1+  0.731  0.667  0.740  0.429
  Li1655  Li1+  0.592  0.304  0.836  0.430
  Li1079  Li1+  0.269  0.433  0.640  0.431
  Li2859  Li1+  0.992  0.104  0.436  0.431
  Li869  Li1+  0.392  0.296  0.364  0.432
  Li3195  Li1+  0.992  0.504  0.836  0.432
  Li311  Li1+  0.192  0.504  0.236  0.433
  Li1070  Li1+  0.208  0.404  0.664  0.433
  Li2639  Li1+  0.629  0.604  0.847  0.433
  Li1098  Li1+  0.208  0.404  0.864  0.433
  Li1338  Li1+  0.331  0.933  0.460  0.434
  Li710  Li1+  0.292  0.096  0.136  0.436
  Li2978  Li1+  0.892  0.296  0.336  0.436
  Li237  Li1+  0.008  0.396  0.736  0.436
  Li1693  Li1+  0.408  0.596  0.136  0.437
  Li13  Li1+  0.008  0.196  0.136  0.438
  Li3093  Li1+  0.808  0.596  0.136  0.438
  Li2814  Li1+  0.829  0.196  0.153  0.438
  Li1877  Li1+  0.592  0.696  0.564  0.439
  Li3345  Li1+  0.808  0.796  0.936  0.439
  Li3002  Li1+  0.808  0.204  0.464  0.439
  Li2141  Li1+  0.608  0.196  0.336  0.440
  Li587  Li1+  0.171  0.896  0.147  0.440
  Li2912  Li1+  0.971  0.104  0.653  0.441
  Li1819  Li1+  0.571  0.496  0.947  0.442
  Li3135  Li1+  0.971  0.496  0.347  0.442
  Li103  Li1+  0.108  0.004  0.636  0.442
  Li818  Li1+  0.208  0.004  0.864  0.442
  Li1093  Li1+  0.392  0.496  0.964  0.442
  Li2946  Li1+  0.808  0.204  0.064  0.442
  Li699  Li1+  0.171  0.896  0.947  0.442
  Li1778  Li1+  0.429  0.596  0.753  0.443
  Li3493  Li1+  0.931  0.867  0.940  0.444
  Li3065  Li1+  0.808  0.396  0.936  0.444
  Li2890  Li1+  0.808  0.004  0.664  0.444
  Li1217  Li1+  0.208  0.796  0.736  0.445
  Li2779  Li1+  0.629  0.804  0.847  0.445
  Li3419  Li1+  0.992  0.904  0.436  0.446
  Li2563  Li1+  0.669  0.633  0.240  0.446
  Li1028  Li1+  0.308  0.596  0.364  0.447
  Li2045  Li1+  0.592  0.896  0.764  0.447
  Li2035  Li1+  0.508  0.804  0.436  0.448
  Li2282  Li1+  0.629  0.396  0.353  0.448
  Li693  Li1+  0.131  0.867  0.940  0.449
  Li1821  Li1+  0.592  0.696  0.164  0.449
  Li1959  Li1+  0.571  0.696  0.947  0.450
  Li1431  Li1+  0.592  0.104  0.236  0.450
  Li3438  Li1+  0.931  0.933  0.460  0.450
  Li91  Li1+  0.029  0.004  0.647  0.451
  Li853  Li1+  0.208  0.396  0.136  0.451
  Li2941  Li1+  0.992  0.296  0.164  0.451
  Li2465  Li1+  0.792  0.496  0.764  0.451
  Li1994  Li1+  0.408  0.804  0.264  0.451
  Li2633  Li1+  0.792  0.696  0.964  0.452
  Li3223  Li1+  0.992  0.704  0.036  0.452
  Li3251  Li1+  0.992  0.704  0.236  0.453
  Li2722  Li1+  0.608  0.804  0.464  0.454
  Li171  Li1+  0.192  0.304  0.236  0.454
  Li1420  Li1+  0.508  0.196  0.164  0.455
  Li293  Li1+  0.008  0.596  0.136  0.456
  Li1883  Li1+  0.429  0.604  0.447  0.456
  Li594  Li1+  0.008  0.804  0.264  0.456
  Li1785  Li1+  0.531  0.467  0.740  0.456
  Li379  Li1+  0.069  0.433  0.640  0.456
  Li3473  Li1+  0.992  0.896  0.964  0.456
  Li2981  Li1+  0.808  0.396  0.336  0.457
  Li3483  Li1+  0.892  0.904  0.864  0.457
  Li2149  Li1+  0.731  0.067  0.340  0.459
  Li1175  Li1+  0.371  0.696  0.347  0.459
  Li1746  Li1+  0.492  0.496  0.536  0.460
  Li2828  Li1+  0.971  0.104  0.053  0.460
  Li3137  Li1+  0.992  0.496  0.564  0.460
  Li90  Li1+  0.008  0.004  0.664  0.461
  Li3286  Li1+  0.892  0.696  0.536  0.462
  Li2184  Li1+  0.771  0.104  0.453  0.464
  Li965  Li1+  0.208  0.396  0.936  0.464
  Li1089  Li1+  0.365  0.435  0.658  0.464
  Li1261  Li1+  0.392  0.896  0.164  0.465
  Li2190  Li1+  0.608  0.004  0.664  0.465
  Li785  Li1+  0.392  0.096  0.764  0.466
  Li703  Li1+  0.392  0.104  0.036  0.467
  Li3482  Li1+  0.892  0.896  0.936  0.467
  Li161  Li1+  0.131  0.267  0.140  0.467
  Li673  Li1+  0.192  0.896  0.964  0.467
  Li2968  Li1+  0.971  0.304  0.053  0.467
  Li3363  Li1+  0.992  0.904  0.036  0.470
  Li2159  Li1+  0.792  0.104  0.436  0.470
  Li1627  Li1+  0.592  0.304  0.636  0.471
  Li483  Li1+  0.029  0.604  0.447  0.472
  Li11  Li1+  0.092  0.104  0.064  0.472
  Li3417  Li1+  0.992  0.896  0.564  0.472
  Li1344  Li1+  0.371  0.904  0.453  0.472
  Li1378  Li1+  0.208  0.804  0.864  0.473
  Li2895  Li1+  0.892  0.104  0.664  0.474
  Li1415  Li1+  0.469  0.033  0.040  0.474
  Li3058  Li1+  0.808  0.204  0.864  0.474
  Li651  Li1+  0.029  0.804  0.647  0.475
  Li1771  Li1+  0.429  0.404  0.647  0.475
  Li659  Li1+  0.069  0.833  0.640  0.476
  Li1382  Li1+  0.292  0.896  0.936  0.476
  Li1485  Li1+  0.592  0.096  0.764  0.477
  Li834  Li1+  0.331  0.133  0.860  0.477
  Li371  Li1+  0.029  0.404  0.647  0.480
  Li1638  Li1+  0.429  0.396  0.753  0.480
  Li1373  Li1+  0.392  0.896  0.964  0.480
  Li1847  Li1+  0.571  0.696  0.147  0.483
  Li1653  Li1+  0.592  0.296  0.964  0.483
  Li154  Li1+  0.029  0.396  0.153  0.484
  Li974  Li1+  0.331  0.333  0.860  0.484
  Li1014  Li1+  0.208  0.404  0.264  0.484
  Li1917  Li1+  0.408  0.796  0.736  0.485
  Li34  Li1+  0.008  0.004  0.264  0.485
  Li1042  Li1+  0.208  0.404  0.464  0.486
  Li225  Li1+  0.192  0.296  0.764  0.486
  Li630  Li1+  0.029  0.996  0.553  0.486
  Li167  Li1+  0.171  0.296  0.147  0.487
  Li2243  Li1+  0.792  0.304  0.036  0.487
  Li329  Li1+  0.131  0.467  0.340  0.487
  Li851  Li1+  0.292  0.304  0.064  0.487
  Li2897  Li1+  0.808  0.196  0.736  0.487
  Li64  Li1+  0.067  0.104  0.446  0.487
  Li2661  Li1+  0.792  0.896  0.164  0.488
  Li2841  Li1+  0.808  0.196  0.336  0.488
  Li2829  Li1+  0.992  0.096  0.364  0.489
  Li882  Li1+  0.229  0.396  0.353  0.489
  Li3149  Li1+  0.808  0.596  0.536  0.489
  Li664  Li1+  0.108  0.996  0.764  0.490
  Li1077  Li1+  0.208  0.596  0.736  0.490
  Li258  Li1+  0.008  0.204  0.864  0.490
  Li433  Li1+  0.008  0.796  0.136  0.491
  Li296  Li1+  0.069  0.567  0.160  0.491
  Li2680  Li1+  0.708  0.996  0.164  0.491
  Li819  Li1+  0.229  0.004  0.847  0.492
  Li1029  Li1+  0.331  0.467  0.340  0.492
  Li1080  Li1+  0.269  0.567  0.760  0.493
  Li1946  Li1+  0.429  0.796  0.953  0.493
  Li1095  Li1+  0.392  0.504  0.836  0.493
  Li3499  Li1+  0.971  0.896  0.947  0.493
  Li1945  Li1+  0.408  0.796  0.936  0.494
  Li531  Li1+  0.171  0.696  0.747  0.494
  Li3037  Li1+  0.808  0.396  0.736  0.495
  Li454  Li1+  0.008  0.604  0.264  0.495
  Li2075  Li1+  0.592  0.904  0.836  0.496
  Li3415  Li1+  0.971  0.896  0.347  0.496
  Li2618  Li1+  0.629  0.796  0.753  0.496
  Li2862  Li1+  0.808  0.004  0.464  0.497
  Li1071  Li1+  0.229  0.404  0.647  0.497
  Li1360  Li1+  0.269  0.967  0.760  0.497
  Li1561  Li1+  0.531  0.267  0.140  0.498
  Li1429  Li1+  0.592  0.096  0.364  0.498
  Li1631  Li1+  0.429  0.204  0.647  0.498
  Li1756  Li1+  0.508  0.596  0.564  0.498
  Li2253  Li1+  0.608  0.396  0.136  0.498
  Li790  Li1+  0.208  0.004  0.664  0.498
  Li1848  Li1+  0.571  0.704  0.053  0.499
  Li1630  Li1+  0.408  0.204  0.664  0.499
  Li1555  Li1+  0.469  0.233  0.040  0.499
  Li629  Li1+  0.008  0.996  0.536  0.500
  Li141  Li1+  0.192  0.296  0.164  0.500
  Li2254  Li1+  0.629  0.396  0.153  0.500
  Li1823  Li1+  0.592  0.704  0.036  0.501
  Li1335  Li1+  0.308  0.804  0.436  0.501
  Li1015  Li1+  0.229  0.404  0.247  0.501
  Li791  Li1+  0.229  0.004  0.647  0.502
  Li1752  Li1+  0.469  0.567  0.560  0.502
  Li3348  Li1+  0.869  0.767  0.960  0.502
  Li2863  Li1+  0.829  0.004  0.447  0.503
  Li3038  Li1+  0.829  0.396  0.753  0.503
  Li1364  Li1+  0.308  0.996  0.764  0.503
  Li1379  Li1+  0.229  0.804  0.847  0.503
  Li2617  Li1+  0.608  0.796  0.736  0.504
  Li3389  Li1+  0.992  0.896  0.364  0.504
  Li2100  Li1+  0.571  0.904  0.853  0.504
  Li1550  Li1+  0.492  0.296  0.136  0.504
  Li3150  Li1+  0.829  0.596  0.553  0.504
  Li2003  Li1+  0.469  0.833  0.240  0.505
  Li455  Li1+  0.029  0.604  0.247  0.505
  Li505  Li1+  0.192  0.696  0.764  0.506
  Li1120  Li1+  0.371  0.504  0.853  0.507
  Li1078  Li1+  0.229  0.596  0.753  0.507
  Li259  Li1+  0.029  0.204  0.847  0.508
  Li721  Li1+  0.331  0.067  0.140  0.508
  Li3291  Li1+  0.869  0.633  0.440  0.508
  Li2638  Li1+  0.608  0.604  0.864  0.509
  Li434  Li1+  0.029  0.796  0.153  0.509
  Li300  Li1+  0.108  0.596  0.164  0.509
  Li2842  Li1+  0.829  0.196  0.353  0.510
  Li2676  Li1+  0.669  0.967  0.160  0.510
  Li3447  Li1+  0.992  0.904  0.636  0.510
  Li2687  Li1+  0.771  0.896  0.147  0.511
  Li2855  Li1+  0.971  0.096  0.347  0.511
  Li1393  Li1+  0.331  0.867  0.940  0.512
  Li2898  Li1+  0.829  0.196  0.753  0.513
  Li2603  Li1+  0.771  0.696  0.547  0.514
  Li1043  Li1+  0.229  0.404  0.447  0.514
  Li251  Li1+  0.171  0.296  0.747  0.514
  Li35  Li1+  0.029  0.004  0.247  0.515
  Li1918  Li1+  0.429  0.796  0.753  0.515
  Li1793  Li1+  0.592  0.496  0.964  0.515
  Li1155  Li1+  0.229  0.604  0.247  0.516
  Li1679  Li1+  0.571  0.296  0.947  0.517
  Li370  Li1+  0.008  0.404  0.664  0.518
  Li1018  Li1+  0.292  0.496  0.336  0.520
  Li1770  Li1+  0.408  0.404  0.664  0.520
  Li1637  Li1+  0.408  0.396  0.736  0.520
  Li1511  Li1+  0.571  0.096  0.747  0.520
  Li523  Li1+  0.108  0.604  0.636  0.522
  Li3059  Li1+  0.829  0.204  0.847  0.522
  Li3360  Li1+  0.971  0.704  0.853  0.523
  Li823  Li1+  0.292  0.104  0.864  0.523
  Li3262  Li1+  0.829  0.796  0.353  0.523
  Li1419  Li1+  0.508  0.004  0.036  0.524
  Li2951  Li1+  0.892  0.304  0.064  0.524
  Li111  Li1+  0.171  0.096  0.747  0.525
  Li1995  Li1+  0.429  0.804  0.247  0.525
  Li1319  Li1+  0.392  0.904  0.436  0.528
  Li3443  Li1+  0.971  0.896  0.547  0.528
  Li1652  Li1+  0.571  0.304  0.653  0.528
  Li2129  Li1+  0.792  0.096  0.364  0.528
  Li482  Li1+  0.008  0.604  0.464  0.528
  Li1083  Li1+  0.308  0.404  0.636  0.529
  Li747  Li1+  0.308  0.004  0.236  0.529
  Li71  Li1+  0.069  0.033  0.440  0.530
  Li3388  Li1+  0.971  0.904  0.053  0.530
  Li1287  Li1+  0.371  0.896  0.147  0.532
  Li2906  Li1+  0.931  0.133  0.660  0.532
  Li2456  Li1+  0.708  0.596  0.564  0.532
  Li887  Li1+  0.308  0.204  0.236  0.533
  Li966  Li1+  0.229  0.396  0.953  0.533
  Li963  Li1+  0.292  0.304  0.864  0.533
  Li728  Li1+  0.371  0.104  0.053  0.533
  Li811  Li1+  0.371  0.096  0.747  0.534
  Li1616  Li1+  0.508  0.396  0.564  0.535
  Li2191  Li1+  0.629  0.004  0.647  0.535
  Li3066  Li1+  0.829  0.396  0.953  0.536
  Li3163  Li1+  0.971  0.496  0.547  0.538
  Li2138  Li1+  0.692  0.096  0.336  0.539
  Li3055  Li1+  0.992  0.304  0.836  0.539
  Li2803  Li1+  0.992  0.104  0.036  0.540
  Li1757  Li1+  0.531  0.467  0.540  0.540
  Li2071  Li1+  0.571  0.896  0.747  0.540
  Li2982  Li1+  0.829  0.396  0.353  0.541
  Li2491  Li1+  0.771  0.496  0.747  0.542
  Li1774  Li1+  0.492  0.496  0.736  0.544
  Li595  Li1+  0.029  0.804  0.247  0.544
  Li1882  Li1+  0.408  0.604  0.464  0.544
  Li294  Li1+  0.029  0.596  0.153  0.544
  Li3248  Li1+  0.971  0.704  0.053  0.545
  Li196  Li1+  0.171  0.304  0.253  0.545
  Li1559  Li1+  0.508  0.204  0.036  0.545
  Li2778  Li1+  0.608  0.804  0.864  0.546
  Li870  Li1+  0.235  0.265  0.358  0.546
  Li123  Li1+  0.092  0.104  0.864  0.546
  Li2723  Li1+  0.629  0.804  0.447  0.546
  Li3276  Li1+  0.971  0.704  0.253  0.547
  Li2659  Li1+  0.771  0.696  0.947  0.547
  Li3297  Li1+  0.931  0.667  0.540  0.548
  Li2967  Li1+  0.971  0.296  0.147  0.549
  Li1467  Li1+  0.492  0.104  0.464  0.549
  Li854  Li1+  0.229  0.396  0.153  0.549
  Li2281  Li1+  0.608  0.396  0.336  0.550
  Li1416  Li1+  0.469  0.167  0.160  0.550
  Li1456  Li1+  0.571  0.104  0.253  0.550
  Li1933  Li1+  0.592  0.696  0.964  0.550
  Li60  Li1+  0.035  0.135  0.442  0.551
  Li1903  Li1+  0.571  0.696  0.547  0.551
  Li1218  Li1+  0.229  0.796  0.753  0.552
  Li2567  Li1+  0.708  0.604  0.236  0.552
  Li3444  Li1+  0.971  0.904  0.453  0.552
  Li1119  Li1+  0.371  0.496  0.947  0.553
  Li658  Li1+  0.029  0.996  0.753  0.553
  Li862  Li1+  0.331  0.333  0.060  0.553
  Li2891  Li1+  0.829  0.004  0.647  0.553
  Li1099  Li1+  0.229  0.404  0.847  0.553
  Li3003  Li1+  0.829  0.204  0.447  0.554
  Li115  Li1+  0.192  0.104  0.836  0.555
  Li2031  Li1+  0.469  0.833  0.440  0.555
  Li3346  Li1+  0.829  0.796  0.953  0.555
  Li1777  Li1+  0.408  0.596  0.736  0.557
  Li561  Li1+  0.192  0.896  0.164  0.557
  Li2506  Li1+  0.629  0.596  0.953  0.557
  Li3109  Li1+  0.992  0.496  0.364  0.558
  Li2947  Li1+  0.829  0.204  0.047  0.558
  Li75  Li1+  0.108  0.004  0.436  0.558
  Li22  Li1+  0.131  0.133  0.060  0.559
  Li2887  Li1+  0.992  0.104  0.636  0.559
  Li2142  Li1+  0.629  0.196  0.353  0.559
  Li3427  Li1+  0.892  0.904  0.464  0.561
  Li1225  Li1+  0.331  0.667  0.740  0.561
  Li1251  Li1+  0.308  0.604  0.836  0.561
  Li3052  Li1+  0.971  0.304  0.653  0.562
  Li2813  Li1+  0.808  0.196  0.136  0.562
  Li3094  Li1+  0.829  0.596  0.153  0.562
  Li14  Li1+  0.029  0.196  0.153  0.562
  Li336  Li1+  0.171  0.504  0.253  0.562
  Li1694  Li1+  0.429  0.596  0.153  0.563
  Li238  Li1+  0.029  0.396  0.753  0.564
  Li309  Li1+  0.192  0.496  0.364  0.565
  Li2989  Li1+  0.931  0.267  0.340  0.566
  Li3282  Li1+  0.808  0.604  0.464  0.566
  Li1680  Li1+  0.571  0.304  0.853  0.567
  Li2103  Li1+  0.792  0.104  0.036  0.567
  Li1394  Li1+  0.331  0.933  0.860  0.568
  Li3220  Li1+  0.971  0.504  0.853  0.568
  Li895  Li1+  0.371  0.296  0.347  0.568
  Li2519  Li1+  0.771  0.496  0.947  0.569
  Li2884  Li1+  0.971  0.104  0.453  0.569
  Li2148  Li1+  0.708  0.196  0.364  0.572
  Li1204  Li1+  0.371  0.704  0.453  0.573
  Li704  Li1+  0.235  0.135  0.042  0.575
  Li1205  Li1+  0.392  0.696  0.764  0.575
  Li616  Li1+  0.171  0.904  0.253  0.576
  Li3121  Li1+  0.808  0.596  0.336  0.576
  Li3178  Li1+  0.829  0.596  0.753  0.577
  Li1386  Li1+  0.229  0.996  0.953  0.577
  Li2589  Li1+  0.608  0.796  0.536  0.578
  Li2127  Li1+  0.771  0.096  0.147  0.578
  Li669  Li1+  0.165  0.835  0.658  0.578
  Li2114  Li1+  0.629  0.196  0.153  0.579
  Li860  Li1+  0.308  0.396  0.164  0.580
  Li1323  Li1+  0.229  0.804  0.447  0.581
  Li1063  Li1+  0.371  0.496  0.547  0.581
  Li3062  Li1+  0.892  0.296  0.936  0.581
  Li2464  Li1+  0.771  0.504  0.453  0.581
  Li2435  Li1+  0.771  0.496  0.347  0.581
  Li2614  Li1+  0.692  0.696  0.736  0.582
  Li2135  Li1+  0.629  0.004  0.247  0.583
  Li2996  Li1+  0.971  0.304  0.253  0.585
  Li2604  Li1+  0.771  0.704  0.453  0.585
  Li1478  Li1+  0.531  0.133  0.460  0.586
  Li2534  Li1+  0.629  0.796  0.153  0.586
  Li1092  Li1+  0.371  0.504  0.653  0.586
  Li234  Li1+  0.092  0.296  0.736  0.586
  Li720  Li1+  0.308  0.196  0.164  0.587
  Li1247  Li1+  0.269  0.633  0.840  0.587
  Li1050  Li1+  0.229  0.596  0.553  0.589
  Li735  Li1+  0.229  0.004  0.247  0.589
  Li1055  Li1+  0.308  0.404  0.436  0.590
  Li1047  Li1+  0.292  0.504  0.464  0.590
  Li1784  Li1+  0.508  0.596  0.764  0.591
  Li1749  Li1+  0.408  0.596  0.536  0.592
  Li1687  Li1+  0.429  0.404  0.047  0.594
  Li847  Li1+  0.229  0.204  0.047  0.594
  Li2944  Li1+  0.835  0.335  0.042  0.595
  Li3164  Li1+  0.971  0.504  0.453  0.596
  Li2605  Li1+  0.792  0.696  0.764  0.596
  Li2396  Li1+  0.669  0.567  0.160  0.596
  Li3332  Li1+  0.971  0.704  0.653  0.596
  Li831  Li1+  0.308  0.004  0.836  0.596
  Li1391  Li1+  0.308  0.804  0.836  0.597
  Li2911  Li1+  0.971  0.096  0.747  0.598
  Li1979  Li1+  0.508  0.804  0.036  0.599
  Li888  Li1+  0.308  0.396  0.364  0.599
  Li797  Li1+  0.208  0.196  0.736  0.600
  Li910  Li1+  0.229  0.396  0.553  0.600
  Li3339  Li1+  0.829  0.604  0.847  0.601
  Li3191  Li1+  0.971  0.496  0.747  0.601
  Li623  Li1+  0.029  0.804  0.447  0.601
  Li134  Li1+  0.131  0.133  0.860  0.602
  Li1742  Li1+  0.408  0.404  0.464  0.602
  Li168  Li1+  0.171  0.304  0.053  0.603
  Li2919  Li1+  0.829  0.004  0.847  0.604
  Li3416  Li1+  0.971  0.904  0.253  0.605
  Li1167  Li1+  0.308  0.604  0.236  0.606
  Li2632  Li1+  0.771  0.704  0.653  0.606
  Li3219  Li1+  0.971  0.496  0.947  0.611
  Li2359  Li1+  0.629  0.204  0.847  0.611
  Li2699  Li1+  0.692  0.904  0.264  0.612
  Li1802  Li1+  0.492  0.496  0.936  0.613
  Li3290  Li1+  0.829  0.796  0.553  0.613
  Li2323  Li1+  0.771  0.296  0.547  0.613
  Li2251  Li1+  0.692  0.304  0.064  0.613
  Li2449  Li1+  0.608  0.596  0.536  0.613
  Li701  Li1+  0.392  0.096  0.164  0.614
  Li3463  Li1+  0.908  0.804  0.636  0.614
  Li3343  Li1+  0.892  0.704  0.864  0.615
  Li2288  Li1+  0.708  0.396  0.364  0.615
  Li2352  Li1+  0.771  0.304  0.653  0.616
  Li539  Li1+  0.029  0.604  0.847  0.616
  Li2596  Li1+  0.708  0.796  0.564  0.617
  Li27  Li1+  0.171  0.096  0.147  0.617
  Li2492  Li1+  0.771  0.504  0.653  0.619
  Li519  Li1+  0.069  0.633  0.640  0.619
  Li2331  Li1+  0.629  0.204  0.647  0.619
  Li3479  Li1+  0.829  0.804  0.847  0.620
  Li1270  Li1+  0.292  0.896  0.136  0.620
  Li1540  Li1+  0.571  0.104  0.853  0.620
  Li118  Li1+  0.008  0.004  0.864  0.620
  Li490  Li1+  0.029  0.796  0.553  0.620
  Li1291  Li1+  0.392  0.904  0.236  0.620
  Li784  Li1+  0.371  0.104  0.453  0.620
  Li1512  Li1+  0.571  0.104  0.653  0.621
  Li407  Li1+  0.069  0.433  0.840  0.621
  Li1438  Li1+  0.492  0.096  0.336  0.621
  Li1862  Li1+  0.429  0.796  0.353  0.622
  Li567  Li1+  0.029  0.804  0.047  0.622
  Li2652  Li1+  0.708  0.796  0.964  0.622
  Li2295  Li1+  0.771  0.296  0.347  0.622
  Li2691  Li1+  0.792  0.904  0.236  0.623
  Li2452  Li1+  0.669  0.567  0.560  0.623
  Li1590  Li1+  0.531  0.333  0.260  0.623
  Li1767  Li1+  0.592  0.504  0.636  0.624
  Li1039  Li1+  0.392  0.504  0.436  0.624
  Li1831  Li1+  0.492  0.704  0.064  0.624
  Li384  Li1+  0.108  0.596  0.764  0.625
  Li1960  Li1+  0.571  0.704  0.853  0.625
  Li2479  Li1+  0.669  0.433  0.640  0.625
  Li3430  Li1+  0.829  0.996  0.553  0.625
  Li833  Li1+  0.331  0.067  0.940  0.626
  Li2203  Li1+  0.708  0.004  0.636  0.627
  Li1459  Li1+  0.592  0.104  0.436  0.627
  Li1987  Li1+  0.571  0.896  0.147  0.627
  Li3146  Li1+  0.892  0.496  0.536  0.628
  Li1659  Li1+  0.429  0.204  0.847  0.628
  Li2107  Li1+  0.629  0.004  0.047  0.629
  Li3087  Li1+  0.829  0.404  0.047  0.630
  Li3128  Li1+  0.908  0.596  0.364  0.630
  Li1111  Li1+  0.308  0.404  0.836  0.630
  Li1288  Li1+  0.371  0.904  0.053  0.630
  Li574  Li1+  0.029  0.996  0.153  0.631
  Li2072  Li1+  0.571  0.904  0.653  0.632
  Li2673  Li1+  0.608  0.996  0.136  0.633
  Li447  Li1+  0.171  0.696  0.147  0.633
  Li756  Li1+  0.371  0.104  0.253  0.634
  Li2054  Li1+  0.492  0.896  0.736  0.636
  Li2215  Li1+  0.792  0.104  0.836  0.636
  Li467  Li1+  0.108  0.604  0.236  0.637
  Li671  Li1+  0.171  0.896  0.747  0.638
  Li1571  Li1+  0.592  0.304  0.236  0.638
  Li2554  Li1+  0.608  0.604  0.264  0.638
  Li2969  Li1+  0.992  0.296  0.364  0.638
  Li3277  Li1+  0.992  0.696  0.564  0.638
  Li2856  Li1+  0.971  0.104  0.253  0.639
  Li497  Li1+  0.131  0.667  0.540  0.639
  Li1308  Li1+  0.308  0.996  0.364  0.639
  Li3458  Li1+  0.829  0.996  0.753  0.639
  Li636  Li1+  0.108  0.996  0.564  0.639
  Li2827  Li1+  0.971  0.096  0.147  0.640
  Li2366  Li1+  0.629  0.396  0.953  0.640
  Li477  Li1+  0.192  0.696  0.564  0.641
  Li2624  Li1+  0.708  0.796  0.764  0.642
  Li559  Li1+  0.171  0.696  0.947  0.642
  Li602  Li1+  0.029  0.996  0.353  0.643
  Li20  Li1+  0.108  0.196  0.164  0.643
  Li626  Li1+  0.092  0.896  0.536  0.644
  Li1911  Li1+  0.429  0.604  0.647  0.645
  Li3258  Li1+  0.892  0.696  0.336  0.645
  Li2423  Li1+  0.669  0.433  0.240  0.645
  Li615  Li1+  0.171  0.896  0.347  0.646
  Li1662  Li1+  0.492  0.296  0.936  0.646
  Li3023  Li1+  0.971  0.296  0.547  0.646
  Li2547  Li1+  0.771  0.696  0.147  0.647
  Li2835  Li1+  0.829  0.004  0.247  0.647
  Li1007  Li1+  0.371  0.496  0.147  0.648
  Li3304  Li1+  0.971  0.704  0.453  0.648
  Li1855  Li1+  0.429  0.604  0.247  0.649
  Li2847  Li1+  0.908  0.004  0.236  0.649
  Li1755  Li1+  0.508  0.404  0.436  0.649
  Li3255  Li1+  0.829  0.604  0.247  0.650
  Li2234  Li1+  0.731  0.133  0.860  0.650
  Li1624  Li1+  0.571  0.304  0.453  0.651
  Li2446  Li1+  0.692  0.496  0.536  0.651
  Li3081  Li1+  0.992  0.496  0.164  0.652
  Li552  Li1+  0.108  0.796  0.964  0.653
  Li2939  Li1+  0.971  0.096  0.947  0.653
  Li1603  Li1+  0.429  0.204  0.447  0.654
  Li1103  Li1+  0.292  0.504  0.864  0.655
  Li3  Li1+  0.192  0.104  0.036  0.655
  Li1541  Li1+  0.592  0.296  0.164  0.656
  Li1963  Li1+  0.592  0.904  0.036  0.656
  Li875  Li1+  0.229  0.204  0.247  0.657
  Li246  Li1+  0.131  0.333  0.660  0.657
  Li2642  Li1+  0.692  0.696  0.936  0.657
  Li1246  Li1+  0.229  0.796  0.953  0.658
  Li1170  Li1+  0.331  0.733  0.260  0.659
  Li3101  Li1+  0.931  0.467  0.140  0.659
  Li570  Li1+  0.092  0.896  0.136  0.659
  Li2223  Li1+  0.692  0.104  0.864  0.660
  Li1366  Li1+  0.331  0.933  0.660  0.660
  Li2484  Li1+  0.708  0.596  0.764  0.660
  Li1406  Li1+  0.408  0.004  0.064  0.660
  Li3275  Li1+  0.971  0.696  0.347  0.662
  Li2548  Li1+  0.771  0.704  0.053  0.662
  Li1483  Li1+  0.571  0.096  0.547  0.662
  Li1546  Li1+  0.408  0.204  0.064  0.663
  Li955  Li1+  0.392  0.304  0.836  0.663
  Li2611  Li1+  0.629  0.604  0.647  0.664
  Li1027  Li1+  0.308  0.404  0.236  0.664
  Li1890  Li1+  0.429  0.796  0.553  0.664
  Li3236  Li1+  0.869  0.767  0.160  0.666
  Li1056  Li1+  0.308  0.596  0.564  0.666
  Li3247  Li1+  0.971  0.696  0.147  0.666
  Li308  Li1+  0.171  0.504  0.053  0.666
  Li160  Li1+  0.108  0.396  0.164  0.666
  Li1609  Li1+  0.408  0.396  0.536  0.667
  Li643  Li1+  0.171  0.896  0.547  0.667
  Li56  Li1+  0.171  0.104  0.253  0.668
  Li2751  Li1+  0.629  0.804  0.647  0.668
  Li364  Li1+  0.171  0.504  0.453  0.669
  Li560  Li1+  0.171  0.704  0.853  0.670
  Li1526  Li1+  0.429  0.196  0.953  0.670
  Li2260  Li1+  0.708  0.396  0.164  0.670
  Li1582  Li1+  0.429  0.396  0.353  0.671
  Li896  Li1+  0.371  0.304  0.253  0.672
  Li1315  Li1+  0.371  0.896  0.347  0.672
  Li1341  Li1+  0.365  0.835  0.458  0.672
  Li1343  Li1+  0.371  0.896  0.547  0.672
  Li2771  Li1+  0.771  0.896  0.747  0.673
  Li2478  Li1+  0.629  0.596  0.753  0.673
  Li1022  Li1+  0.229  0.596  0.353  0.673
  Li3203  Li1+  0.892  0.504  0.864  0.674
  Li1330  Li1+  0.229  0.996  0.553  0.674
  Li2807  Li1+  0.829  0.004  0.047  0.674
  Li580  Li1+  0.108  0.996  0.164  0.674
  Li3367  Li1+  0.829  0.804  0.047  0.674
  Li94  Li1+  0.092  0.096  0.736  0.674
  Li1375  Li1+  0.392  0.904  0.836  0.674
  Li3500  Li1+  0.971  0.904  0.853  0.674
  Li3231  Li1+  0.892  0.704  0.064  0.675
  Li2022  Li1+  0.408  0.804  0.464  0.675
  Li2926  Li1+  0.829  0.196  0.953  0.676
  Li347  Li1+  0.092  0.504  0.464  0.677
  Li1707  Li1+  0.571  0.496  0.147  0.677
  Li1971  Li1+  0.492  0.904  0.064  0.678
  Li327  Li1+  0.108  0.404  0.236  0.678
  Li1765  Li1+  0.592  0.496  0.764  0.678
  Li2987  Li1+  0.908  0.204  0.236  0.679
  Li1439  Li1+  0.492  0.104  0.264  0.679
  Li391  Li1+  0.171  0.496  0.747  0.680
  Li2463  Li1+  0.771  0.496  0.547  0.681
  Li2083  Li1+  0.492  0.904  0.864  0.682
  Li2576  Li1+  0.771  0.704  0.253  0.683
  Li419  Li1+  0.171  0.496  0.947  0.683
  Li1046  Li1+  0.292  0.496  0.536  0.683
  Li2387  Li1+  0.629  0.404  0.047  0.684
  Li3147  Li1+  0.892  0.504  0.464  0.684
  Li3387  Li1+  0.971  0.896  0.147  0.684
  Li543  Li1+  0.092  0.704  0.864  0.685
  Li1274  Li1+  0.229  0.996  0.153  0.685
  Li843  Li1+  0.392  0.304  0.036  0.685
  Li916  Li1+  0.308  0.396  0.564  0.686
  Li815  Li1+  0.392  0.104  0.836  0.686
  Li83  Li1+  0.171  0.096  0.547  0.686
  Li2120  Li1+  0.708  0.196  0.164  0.687
  Li2903  Li1+  0.908  0.004  0.636  0.687
  Li3079  Li1+  0.971  0.296  0.947  0.687
  Li1775  Li1+  0.492  0.504  0.664  0.688
  Li672  Li1+  0.171  0.904  0.653  0.688
  Li644  Li1+  0.171  0.904  0.453  0.688
  Li203  Li1+  0.029  0.204  0.447  0.689
  Li1869  Li1+  0.531  0.667  0.340  0.689
  Li548  Li1+  0.069  0.767  0.960  0.689
  Li1207  Li1+  0.392  0.704  0.636  0.690
  Li1295  Li1+  0.229  0.804  0.247  0.690
  Li1588  Li1+  0.508  0.396  0.364  0.690
  Li271  Li1+  0.108  0.204  0.836  0.690
  Li1162  Li1+  0.229  0.796  0.353  0.690
  Li682  Li1+  0.092  0.896  0.936  0.690
  Li1357  Li1+  0.208  0.996  0.736  0.691
  Li813  Li1+  0.392  0.096  0.964  0.691
  Li803  Li1+  0.308  0.004  0.636  0.691
  Li2030  Li1+  0.429  0.996  0.553  0.691
  Li1554  Li1+  0.429  0.396  0.153  0.692
  Li1612  Li1+  0.469  0.367  0.560  0.692
  Li2206  Li1+  0.731  0.133  0.660  0.693
  Li3006  Li1+  0.892  0.296  0.536  0.693
  Li2848  Li1+  0.908  0.196  0.364  0.695
  Li1413  Li1+  0.408  0.196  0.136  0.696
  Li98  Li1+  0.029  0.196  0.753  0.696
  Li1519  Li1+  0.429  0.004  0.847  0.696
  Li3212  Li1+  0.908  0.596  0.964  0.697
  Li510  Li1+  0.008  0.604  0.664  0.697
  Li1830  Li1+  0.492  0.696  0.136  0.697
  Li2660  Li1+  0.771  0.704  0.853  0.698
  Li2470  Li1+  0.608  0.404  0.664  0.698
  Li2645  Li1+  0.608  0.796  0.936  0.699
  Li2213  Li1+  0.792  0.096  0.964  0.699
  Li2379  Li1+  0.771  0.296  0.947  0.699
  Li1904  Li1+  0.571  0.704  0.453  0.699
  Li147  Li1+  0.029  0.204  0.047  0.699
  Li3031  Li1+  0.829  0.204  0.647  0.699
  Li2904  Li1+  0.908  0.196  0.764  0.700
  Li923  Li1+  0.371  0.296  0.547  0.700
  Li1190  Li1+  0.229  0.796  0.553  0.700
  Li770  Li1+  0.229  0.196  0.553  0.701
  Li2447  Li1+  0.692  0.504  0.464  0.701
  Li2730  Li1+  0.629  0.996  0.553  0.702
  Li3015  Li1+  0.908  0.204  0.436  0.702
  Li3486  Li1+  0.829  0.996  0.953  0.702
  Li1827  Li1+  0.429  0.604  0.047  0.702
  Li878  Li1+  0.292  0.296  0.336  0.702
  Li2324  Li1+  0.771  0.304  0.453  0.703
  Li2414  Li1+  0.608  0.404  0.264  0.703
  Li3311  Li1+  0.829  0.604  0.647  0.704
  Li2735  Li1+  0.708  0.804  0.436  0.704
  Li504  Li1+  0.171  0.704  0.453  0.707
  Li2247  Li1+  0.629  0.204  0.047  0.707
  Li1849  Li1+  0.592  0.696  0.364  0.708
  Li363  Li1+  0.171  0.496  0.547  0.708
  Li1108  Li1+  0.269  0.567  0.960  0.709
  Li430  Li1+  0.092  0.696  0.136  0.710
  Li2211  Li1+  0.771  0.096  0.747  0.710
  Li551  Li1+  0.108  0.604  0.836  0.711
  Li2278  Li1+  0.692  0.296  0.336  0.711
  Li2475  Li1+  0.692  0.504  0.664  0.712
  Li707  Li1+  0.229  0.004  0.047  0.712
  Li1886  Li1+  0.492  0.696  0.536  0.712
  Li126  Li1+  0.029  0.196  0.953  0.712
  Li3044  Li1+  0.908  0.396  0.764  0.713
  Li2187  Li1+  0.792  0.104  0.636  0.714
  Li2427  Li1+  0.708  0.404  0.236  0.714
  Li1009  Li1+  0.392  0.496  0.364  0.714
  Li2233  Li1+  0.731  0.067  0.940  0.715
  Li398  Li1+  0.008  0.404  0.864  0.716
  Li299  Li1+  0.108  0.404  0.036  0.716
  Li318  Li1+  0.092  0.496  0.336  0.717
  Li3423  Li1+  0.829  0.804  0.447  0.717
  Li2512  Li1+  0.708  0.596  0.964  0.717
  Li307  Li1+  0.171  0.496  0.147  0.718
  Li392  Li1+  0.171  0.504  0.653  0.718
  Li1226  Li1+  0.331  0.733  0.660  0.719
  Li375  Li1+  0.092  0.504  0.664  0.719
  Li1392  Li1+  0.308  0.996  0.964  0.720
  Li2462  Li1+  0.765  0.565  0.542  0.722
  Li2670  Li1+  0.692  0.896  0.136  0.723
  Li1151  Li1+  0.392  0.704  0.236  0.723
  Li440  Li1+  0.108  0.796  0.164  0.723
  Li2226  Li1+  0.629  0.196  0.953  0.723
  Li378  Li1+  0.029  0.596  0.753  0.724
  Li1560  Li1+  0.508  0.396  0.164  0.724
  Li343  Li1+  0.029  0.404  0.447  0.724
  Li2290  Li1+  0.731  0.333  0.260  0.724
  Li2783  Li1+  0.692  0.904  0.864  0.725
  Li1463  Li1+  0.429  0.004  0.447  0.725
  Li2667  Li1+  0.629  0.804  0.047  0.725
  Li139  Li1+  0.171  0.096  0.947  0.725
  Li227  Li1+  0.192  0.304  0.636  0.726
  Li350  Li1+  0.029  0.596  0.553  0.726
  Li3371  Li1+  0.892  0.904  0.064  0.726
  Li1942  Li1+  0.492  0.696  0.936  0.726
  Li324  Li1+  0.069  0.567  0.360  0.727
  Li3108  Li1+  0.971  0.504  0.053  0.729
  Li1820  Li1+  0.571  0.504  0.853  0.729
  Li3233  Li1+  0.808  0.796  0.136  0.730
  Li1359  Li1+  0.269  0.833  0.640  0.730
  Li1806  Li1+  0.429  0.596  0.953  0.730
  Li1764  Li1+  0.571  0.504  0.453  0.731
  Li804  Li1+  0.308  0.196  0.764  0.731
  Li374  Li1+  0.092  0.496  0.736  0.731
  Li475  Li1+  0.171  0.696  0.347  0.731
  Li635  Li1+  0.108  0.804  0.436  0.733
  Li2044  Li1+  0.571  0.904  0.453  0.734
  Li2540  Li1+  0.708  0.796  0.164  0.734
  Li783  Li1+  0.371  0.096  0.547  0.734
  Li2086  Li1+  0.429  0.996  0.953  0.734
  Li1427  Li1+  0.571  0.096  0.147  0.735
  Li1931  Li1+  0.571  0.696  0.747  0.735
  Li1371  Li1+  0.371  0.896  0.747  0.735
  Li2894  Li1+  0.892  0.096  0.736  0.735
  Li2408  Li1+  0.771  0.504  0.053  0.736
  Li944  Li1+  0.308  0.396  0.764  0.736
  Li228  Li1+  0.035  0.335  0.642  0.736
  Li1966  Li1+  0.408  0.804  0.064  0.736
  Li938  Li1+  0.229  0.396  0.753  0.737
  Li931  Li1+  0.229  0.204  0.647  0.737
  Li3267  Li1+  0.908  0.604  0.236  0.737
  Li3174  Li1+  0.892  0.496  0.736  0.737
  Li1663  Li1+  0.492  0.304  0.864  0.737
  Li1211  Li1+  0.229  0.604  0.647  0.738
  Li2527  Li1+  0.629  0.604  0.047  0.738
  Li1635  Li1+  0.492  0.304  0.664  0.739
  Li2275  Li1+  0.629  0.204  0.247  0.739
  Li476  Li1+  0.171  0.704  0.253  0.739
  Li924  Li1+  0.371  0.304  0.453  0.740
  Li2615  Li1+  0.692  0.704  0.664  0.741
  Li1876  Li1+  0.571  0.704  0.253  0.742
  Li1347  Li1+  0.392  0.904  0.636  0.742
  Li3010  Li1+  0.829  0.396  0.553  0.742
  Li2838  Li1+  0.892  0.096  0.336  0.742
  Li3206  Li1+  0.829  0.596  0.953  0.742
  Li315  Li1+  0.029  0.404  0.247  0.743
  Li1722  Li1+  0.429  0.596  0.353  0.743
  Li1498  Li1+  0.429  0.196  0.753  0.743
  Li496  Li1+  0.108  0.796  0.564  0.744
  Li1495  Li1+  0.492  0.104  0.664  0.744
  Li462  Li1+  0.029  0.796  0.353  0.745
  Li2811  Li1+  0.892  0.104  0.064  0.745
  Li1575  Li1+  0.429  0.204  0.247  0.745
  Li3399  Li1+  0.892  0.904  0.264  0.746
  Li1532  Li1+  0.508  0.196  0.964  0.746
  Li3351  Li1+  0.908  0.604  0.836  0.747
  Li2502  Li1+  0.692  0.496  0.936  0.747
  Li3315  Li1+  0.892  0.704  0.664  0.747
  Li427  Li1+  0.029  0.604  0.047  0.747
  Li1943  Li1+  0.492  0.704  0.864  0.747
  Li3100  Li1+  0.908  0.596  0.164  0.748
  Li2950  Li1+  0.892  0.296  0.136  0.749
  Li1699  Li1+  0.508  0.404  0.036  0.750
  Li1523  Li1+  0.492  0.104  0.864  0.750
  Li2393  Li1+  0.608  0.596  0.136  0.750
  Li742  Li1+  0.229  0.196  0.353  0.751
  Li70  Li1+  0.029  0.196  0.553  0.751
  Li2932  Li1+  0.908  0.196  0.964  0.752
  Li1737  Li1+  0.592  0.496  0.564  0.752
  Li1923  Li1+  0.508  0.604  0.636  0.753
  Li3119  Li1+  0.892  0.504  0.264  0.754
  Li994  Li1+  0.229  0.596  0.153  0.754
  Li2875  Li1+  0.908  0.004  0.436  0.754
  Li1671  Li1+  0.508  0.204  0.836  0.755
  Li3143  Li1+  0.829  0.404  0.447  0.755
  Li3192  Li1+  0.971  0.504  0.653  0.755
  Li1299  Li1+  0.292  0.904  0.264  0.756
  Li3455  Li1+  0.892  0.904  0.664  0.757
  Li1895  Li1+  0.508  0.604  0.436  0.758
  Li3331  Li1+  0.971  0.696  0.747  0.759
  Li2575  Li1+  0.771  0.696  0.347  0.760
  Li1127  Li1+  0.229  0.604  0.047  0.760
  Li3395  Li1+  0.829  0.804  0.247  0.760
  Li2530  Li1+  0.692  0.696  0.136  0.761
  Li2147  Li1+  0.708  0.004  0.236  0.761
  Li3287  Li1+  0.892  0.704  0.464  0.763
  Li2959  Li1+  0.908  0.204  0.036  0.763
  Li2839  Li1+  0.892  0.104  0.264  0.764
  Li3464  Li1+  0.908  0.996  0.764  0.764
  Li402  Li1+  0.092  0.496  0.936  0.764
  Li2539  Li1+  0.708  0.604  0.036  0.765
  Li2763  Li1+  0.708  0.804  0.636  0.765
  Li279  Li1+  0.171  0.296  0.947  0.766
  Li1700  Li1+  0.508  0.596  0.164  0.766
  Li47  Li1+  0.108  0.004  0.236  0.766
  Li3034  Li1+  0.892  0.296  0.736  0.767
  Li2715  Li1+  0.771  0.896  0.347  0.767
  Li458  Li1+  0.092  0.696  0.336  0.768
  Li686  Li1+  0.029  0.996  0.953  0.768
  Li3072  Li1+  0.908  0.396  0.964  0.769
  Li1539  Li1+  0.571  0.096  0.947  0.770
  Li3398  Li1+  0.892  0.896  0.336  0.771
  Li903  Li1+  0.229  0.204  0.447  0.771
  Li2407  Li1+  0.771  0.496  0.147  0.772
  Li1260  Li1+  0.371  0.704  0.853  0.772
  Li545  Li1+  0.008  0.796  0.936  0.772
  Li3318  Li1+  0.829  0.796  0.753  0.772
  Li1183  Li1+  0.229  0.604  0.447  0.772
  Li812  Li1+  0.371  0.104  0.653  0.773
  Li2643  Li1+  0.692  0.704  0.864  0.773
  Li3379  Li1+  0.908  0.804  0.036  0.773
  Li2623  Li1+  0.708  0.604  0.636  0.773
  Li607  Li1+  0.108  0.804  0.236  0.773
  Li1091  Li1+  0.371  0.496  0.747  0.774
  Li62  Li1+  0.008  0.004  0.464  0.774
  Li2422  Li1+  0.629  0.596  0.353  0.774
  Li55  Li1+  0.171  0.096  0.347  0.775
  Li287  Li1+  0.029  0.404  0.047  0.775
  Li3171  Li1+  0.829  0.404  0.647  0.776
  Li1735  Li1+  0.571  0.496  0.347  0.776
  Li2772  Li1+  0.771  0.904  0.653  0.777
  Li1084  Li1+  0.308  0.596  0.764  0.777
  Li406  Li1+  0.029  0.596  0.953  0.779
  Li1708  Li1+  0.571  0.504  0.053  0.780
  Li389  Li1+  0.165  0.435  0.658  0.781
  Li1355  Li1+  0.292  0.904  0.664  0.781
  Li1728  Li1+  0.508  0.596  0.364  0.781
  Li3380  Li1+  0.908  0.996  0.164  0.782
  Li2170  Li1+  0.629  0.196  0.553  0.783
  Li2110  Li1+  0.692  0.096  0.136  0.783
  Li420  Li1+  0.171  0.504  0.853  0.783
  Li2979  Li1+  0.892  0.304  0.264  0.784
  Li1195  Li1+  0.308  0.604  0.436  0.784
  Li2743  Li1+  0.771  0.896  0.547  0.784
  Li2520  Li1+  0.771  0.504  0.853  0.785
  Li3240  Li1+  0.908  0.796  0.164  0.786
  Li1939  Li1+  0.429  0.604  0.847  0.786
  Li150  Li1+  0.092  0.296  0.136  0.787
  Li1799  Li1+  0.429  0.404  0.847  0.787
  Li231  Li1+  0.029  0.204  0.647  0.788
  Li1868  Li1+  0.508  0.796  0.364  0.788
  Li1623  Li1+  0.571  0.296  0.547  0.788
  Li3370  Li1+  0.892  0.896  0.136  0.789
  Li3227  Li1+  0.829  0.604  0.047  0.790
  Li319  Li1+  0.092  0.504  0.264  0.790
  Li3336  Li1+  0.835  0.735  0.842  0.792
  Li2883  Li1+  0.971  0.096  0.547  0.792
  Li674  Li1+  0.035  0.865  0.958  0.792
  Li175  Li1+  0.029  0.204  0.247  0.793
  Li588  Li1+  0.171  0.904  0.053  0.793
  Li1924  Li1+  0.508  0.796  0.764  0.793
  Li1280  Li1+  0.308  0.996  0.164  0.794
  Li599  Li1+  0.092  0.904  0.264  0.795
  Li2688  Li1+  0.771  0.904  0.053  0.795
  Li2092  Li1+  0.508  0.996  0.964  0.796
  Li2870  Li1+  0.829  0.196  0.553  0.796
  Li3199  Li1+  0.829  0.404  0.847  0.797
  Li2055  Li1+  0.492  0.904  0.664  0.797
  Li2443  Li1+  0.629  0.404  0.447  0.798
  Li1259  Li1+  0.371  0.696  0.947  0.798
  Li2310  Li1+  0.629  0.396  0.553  0.798
  Li7  Li1+  0.029  0.004  0.047  0.799
  Li2351  Li1+  0.771  0.296  0.747  0.799
  Li859  Li1+  0.308  0.204  0.036  0.799
  Li1267  Li1+  0.229  0.804  0.047  0.799
  Li223  Li1+  0.171  0.296  0.547  0.800
  Li2988  Li1+  0.908  0.396  0.364  0.800
  Li3435  Li1+  0.908  0.804  0.436  0.800
  Li3130  Li1+  0.931  0.533  0.260  0.800
  Li2219  Li1+  0.629  0.004  0.847  0.801
  Li2922  Li1+  0.892  0.096  0.936  0.802
  Li2099  Li1+  0.571  0.896  0.947  0.802
  Li266  Li1+  0.029  0.396  0.953  0.802
  Li3051  Li1+  0.971  0.296  0.747  0.802
  Li2198  Li1+  0.629  0.196  0.753  0.803
  Li1491  Li1+  0.429  0.004  0.647  0.803
  Li1350  Li1+  0.208  0.804  0.664  0.803
  Li906  Li1+  0.292  0.296  0.536  0.803
  Li3184  Li1+  0.908  0.596  0.764  0.803
  Li2931  Li1+  0.908  0.004  0.836  0.803
  Li2651  Li1+  0.708  0.604  0.836  0.806
  Li1914  Li1+  0.492  0.696  0.736  0.808
  Li2267  Li1+  0.771  0.296  0.147  0.808
  Li178  Li1+  0.092  0.296  0.336  0.809
  Li2194  Li1+  0.692  0.096  0.736  0.809
  Li169  Li1+  0.192  0.296  0.364  0.809
  Li1008  Li1+  0.371  0.504  0.053  0.809
  Li2338  Li1+  0.629  0.396  0.753  0.809
  Li2758  Li1+  0.629  0.996  0.753  0.809
  Li3024  Li1+  0.971  0.304  0.453  0.809
  Li598  Li1+  0.092  0.896  0.336  0.811
  Li1075  Li1+  0.292  0.504  0.664  0.811
  Li2222  Li1+  0.692  0.096  0.936  0.811
  Li2583  Li1+  0.629  0.604  0.447  0.811
  Li1336  Li1+  0.308  0.996  0.564  0.812
  Li959  Li1+  0.229  0.204  0.847  0.812
  Li755  Li1+  0.371  0.096  0.347  0.812
  Li2391  Li1+  0.692  0.504  0.064  0.812
  Li951  Li1+  0.371  0.296  0.747  0.813
  Li2483  Li1+  0.708  0.404  0.636  0.813
  Li182  Li1+  0.029  0.396  0.353  0.814
  Li2433  Li1+  0.765  0.435  0.258  0.814
  Li2015  Li1+  0.571  0.896  0.347  0.814
  Li532  Li1+  0.171  0.704  0.653  0.814
  Li1134  Li1+  0.229  0.796  0.153  0.815
  Li2954  Li1+  0.829  0.396  0.153  0.815
  Li2043  Li1+  0.571  0.896  0.547  0.816
  Li1470  Li1+  0.429  0.196  0.553  0.817
  Li2250  Li1+  0.692  0.296  0.136  0.818
  Li2259  Li1+  0.708  0.204  0.036  0.818
  Li3268  Li1+  0.908  0.796  0.364  0.819
  Li518  Li1+  0.029  0.796  0.753  0.819
  Li3118  Li1+  0.892  0.496  0.336  0.820
  Li2820  Li1+  0.908  0.196  0.164  0.820
  Li2016  Li1+  0.571  0.904  0.253  0.821
  Li794  Li1+  0.292  0.096  0.736  0.821
  Li991  Li1+  0.292  0.504  0.064  0.821
  Li2428  Li1+  0.708  0.596  0.364  0.823
  Li3374  Li1+  0.829  0.996  0.153  0.823
  Li654  Li1+  0.092  0.896  0.736  0.823
  Li2119  Li1+  0.708  0.004  0.036  0.823
  Li1186  Li1+  0.292  0.696  0.536  0.824
  Li1000  Li1+  0.308  0.596  0.164  0.825
  Li2474  Li1+  0.692  0.496  0.736  0.825
  Li1932  Li1+  0.571  0.704  0.653  0.825
  Li151  Li1+  0.092  0.304  0.064  0.826
  Li2111  Li1+  0.692  0.104  0.064  0.826
  Li608  Li1+  0.108  0.996  0.364  0.827
  Li1326  Li1+  0.292  0.896  0.536  0.827
  Li2418  Li1+  0.692  0.496  0.336  0.827
  Li1715  Li1+  0.429  0.404  0.247  0.828
  Li78  Li1+  0.131  0.133  0.460  0.828
  Li1203  Li1+  0.371  0.696  0.547  0.829
  Li2036  Li1+  0.508  0.996  0.564  0.829
  Li1148  Li1+  0.371  0.704  0.053  0.829
  Li3111  Li1+  0.992  0.504  0.236  0.829
  Li42  Li1+  0.029  0.196  0.353  0.830
  Li1834  Li1+  0.429  0.796  0.153  0.831
  Li1442  Li1+  0.429  0.196  0.353  0.831
  Li487  Li1+  0.092  0.704  0.464  0.832
  Li1139  Li1+  0.308  0.604  0.036  0.832
  Li1974  Li1+  0.429  0.996  0.153  0.833
  Li1243  Li1+  0.292  0.704  0.864  0.833
  Li3099  Li1+  0.908  0.404  0.036  0.834
  Li59  Li1+  0.192  0.104  0.436  0.835
  Li3071  Li1+  0.908  0.204  0.836  0.835
  Li1428  Li1+  0.571  0.104  0.053  0.835
  Li2303  Li1+  0.629  0.204  0.447  0.835
  Li700  Li1+  0.171  0.904  0.853  0.835
  Li3471  Li1+  0.971  0.896  0.747  0.836
  Li679  Li1+  0.029  0.804  0.847  0.836
  Li2372  Li1+  0.708  0.396  0.964  0.838
  Li1105  Li1+  0.208  0.596  0.936  0.838
  Li990  Li1+  0.292  0.496  0.136  0.839
  Li2002  Li1+  0.429  0.996  0.353  0.839
  Li2559  Li1+  0.692  0.704  0.264  0.841
  Li1952  Li1+  0.508  0.796  0.964  0.842
  Li1302  Li1+  0.229  0.996  0.353  0.842
  Li189  Li1+  0.131  0.267  0.340  0.842
  Li1298  Li1+  0.292  0.896  0.336  0.843
  Li328  Li1+  0.108  0.596  0.364  0.843
  Li1271  Li1+  0.292  0.904  0.064  0.844
  Li39  Li1+  0.092  0.104  0.264  0.845
  Li290  Li1+  0.092  0.496  0.136  0.846
  Li224  Li1+  0.171  0.304  0.453  0.846
  Li1494  Li1+  0.492  0.096  0.736  0.847
  Li495  Li1+  0.108  0.604  0.436  0.847
  Li1607  Li1+  0.492  0.304  0.464  0.847
  Li3469  Li1+  0.965  0.835  0.658  0.848
  Li952  Li1+  0.371  0.304  0.653  0.848
  Li739  Li1+  0.292  0.104  0.264  0.849
  Li2764  Li1+  0.708  0.996  0.764  0.849
  Li514  Li1+  0.092  0.696  0.736  0.849
  Li1435  Li1+  0.429  0.004  0.247  0.850
  Li459  Li1+  0.092  0.704  0.264  0.851
  Li1285  Li1+  0.365  0.835  0.058  0.852
  Li1887  Li1+  0.492  0.704  0.464  0.853
  Li1173  Li1+  0.365  0.635  0.258  0.853
  Li3436  Li1+  0.908  0.996  0.564  0.853
  Li2702  Li1+  0.629  0.996  0.353  0.853
  Li738  Li1+  0.292  0.096  0.336  0.854
  Li2430  Li1+  0.731  0.533  0.260  0.856
  Li1121  Li1+  0.392  0.696  0.164  0.856
  Li1223  Li1+  0.308  0.604  0.636  0.857
  Li627  Li1+  0.092  0.904  0.464  0.857
  Li1691  Li1+  0.492  0.504  0.064  0.857
  Li1363  Li1+  0.308  0.804  0.636  0.857
  Li826  Li1+  0.229  0.196  0.953  0.857
  Li1666  Li1+  0.429  0.396  0.953  0.857
  Li766  Li1+  0.292  0.096  0.536  0.859
  Li3033  Li1+  0.996  0.300  0.700  0.859
  Li714  Li1+  0.229  0.196  0.153  0.859
  Li691  Li1+  0.108  0.804  0.836  0.860
  Li2232  Li1+  0.708  0.196  0.964  0.860
  Li112  Li1+  0.171  0.104  0.653  0.860
  Li2079  Li1+  0.429  0.804  0.847  0.861
  Li2499  Li1+  0.629  0.404  0.847  0.861
  Li2377  Li1+  0.765  0.235  0.858  0.862
  Li3454  Li1+  0.892  0.896  0.736  0.862
  Li775  Li1+  0.308  0.004  0.436  0.863
  Li2960  Li1+  0.908  0.396  0.164  0.865
  Li3357  Li1+  0.965  0.635  0.858  0.865
  Li2362  Li1+  0.692  0.296  0.936  0.866
  Li3230  Li1+  0.892  0.696  0.136  0.866
  Li776  Li1+  0.308  0.196  0.564  0.867
  Li2307  Li1+  0.692  0.304  0.464  0.867
  Li210  Li1+  0.029  0.396  0.553  0.868
  Li2671  Li1+  0.692  0.904  0.064  0.870
  Li2965  Li1+  0.965  0.235  0.058  0.870
  Li19  Li1+  0.108  0.004  0.036  0.870
  Li524  Li1+  0.108  0.796  0.764  0.870
  Li2726  Li1+  0.692  0.896  0.536  0.870
  Li10  Li1+  0.092  0.096  0.136  0.870
  Li122  Li1+  0.092  0.096  0.936  0.871
  Li280  Li1+  0.171  0.304  0.853  0.871
  Li2204  Li1+  0.708  0.196  0.764  0.872
  Li159  Li1+  0.108  0.204  0.036  0.872
  Li3359  Li1+  0.971  0.696  0.947  0.872
  Li3259  Li1+  0.892  0.704  0.264  0.872
  Li2082  Li1+  0.492  0.896  0.936  0.873
  Li76  Li1+  0.108  0.196  0.564  0.874
  Li355  Li1+  0.108  0.404  0.436  0.875
  Li1568  Li1+  0.571  0.304  0.053  0.876
  Li2335  Li1+  0.692  0.304  0.664  0.877
  Li2876  Li1+  0.908  0.196  0.564  0.878
  Li3156  Li1+  0.908  0.596  0.564  0.878
  Li1595  Li1+  0.571  0.296  0.347  0.879
  Li1130  Li1+  0.292  0.696  0.136  0.879
  Li179  Li1+  0.092  0.304  0.264  0.879
  Li473  Li1+  0.165  0.635  0.258  0.880
  Li244  Li1+  0.108  0.396  0.764  0.881
  Li346  Li1+  0.092  0.496  0.536  0.881
  Li48  Li1+  0.108  0.196  0.364  0.882
  Li2271  Li1+  0.792  0.304  0.236  0.883
  Li795  Li1+  0.292  0.104  0.664  0.883
  Li1522  Li1+  0.492  0.096  0.936  0.883
  Li2754  Li1+  0.692  0.896  0.736  0.883
  Li1141  Li1+  0.331  0.667  0.140  0.884
  Li2455  Li1+  0.708  0.404  0.436  0.884
  Li763  Li1+  0.229  0.004  0.447  0.884
  Li2306  Li1+  0.692  0.296  0.536  0.885
  Li719  Li1+  0.308  0.004  0.036  0.886
  Li1168  Li1+  0.308  0.796  0.364  0.887
  Li2679  Li1+  0.708  0.804  0.036  0.887
  Li1224  Li1+  0.308  0.796  0.764  0.887
  Li3402  Li1+  0.829  0.996  0.353  0.888
  Li1859  Li1+  0.492  0.704  0.264  0.888
  Li3175  Li1+  0.892  0.504  0.664  0.888
  Li1327  Li1+  0.292  0.904  0.464  0.889
  Li814  Li1+  0.235  0.065  0.958  0.890
  Li867  Li1+  0.371  0.296  0.147  0.890
  Li356  Li1+  0.108  0.596  0.564  0.890
  Li2411  Li1+  0.792  0.504  0.236  0.890
  Li987  Li1+  0.229  0.404  0.047  0.890
  Li3239  Li1+  0.908  0.604  0.036  0.891
  Li2867  Li1+  0.892  0.104  0.464  0.891
  Li1314  Li1+  0.365  0.965  0.342  0.892
  Li206  Li1+  0.092  0.296  0.536  0.892
  Li1504  Li1+  0.508  0.196  0.764  0.893
  Li2380  Li1+  0.771  0.304  0.853  0.893
  Li2736  Li1+  0.708  0.996  0.564  0.894
  Li2167  Li1+  0.692  0.104  0.464  0.894
  Li894  Li1+  0.365  0.365  0.342  0.895
  Li3492  Li1+  0.908  0.996  0.964  0.895
  Li1970  Li1+  0.492  0.896  0.136  0.895
  Li2744  Li1+  0.771  0.904  0.453  0.897
  Li1531  Li1+  0.508  0.004  0.836  0.899
  Li2966  Li1+  0.965  0.365  0.142  0.899
  Li3407  Li1+  0.908  0.804  0.236  0.899
  Li2150  Li1+  0.731  0.133  0.260  0.900
  Li1998  Li1+  0.492  0.896  0.336  0.900
  Li1034  Li1+  0.365  0.565  0.342  0.902
  Li2786  Li1+  0.629  0.996  0.953  0.903
  Li310  Li1+  0.035  0.465  0.358  0.904
  Li1783  Li1+  0.508  0.404  0.636  0.904
  Li2810  Li1+  0.892  0.096  0.136  0.904
  Li1036  Li1+  0.371  0.504  0.253  0.905
  Li215  Li1+  0.108  0.204  0.436  0.906
  Li131  Li1+  0.108  0.004  0.836  0.906
  Li1503  Li1+  0.508  0.004  0.636  0.906
  Li3491  Li1+  0.908  0.804  0.836  0.906
  Li1466  Li1+  0.492  0.096  0.536  0.907
  Li321  Li1+  0.008  0.596  0.336  0.907
  Li832  Li1+  0.308  0.196  0.964  0.908
  Li448  Li1+  0.171  0.704  0.053  0.908
  Li879  Li1+  0.292  0.304  0.264  0.909
  Li1376  Li1+  0.235  0.935  0.842  0.909
  Li439  Li1+  0.108  0.604  0.036  0.910
  Li1867  Li1+  0.508  0.604  0.236  0.911
  Li32  Li1+  0.035  0.135  0.242  0.913
  Li2866  Li1+  0.892  0.096  0.536  0.916
  Li282  Li1+  0.035  0.465  0.158  0.916
  Li2008  Li1+  0.508  0.996  0.364  0.916
  Li2587  Li1+  0.692  0.704  0.464  0.916
  Li2791  Li1+  0.708  0.804  0.836  0.917
  Li2058  Li1+  0.429  0.996  0.753  0.917
  Li3314  Li1+  0.892  0.696  0.736  0.918
  Li272  Li1+  0.108  0.396  0.964  0.918
  Li1625  Li1+  0.592  0.296  0.764  0.918
  Li1238  Li1+  0.208  0.604  0.864  0.919
  Li3323  Li1+  0.908  0.604  0.636  0.919
  Li1460  Li1+  0.435  0.135  0.442  0.921
  Li2695  Li1+  0.629  0.804  0.247  0.923
  Li1187  Li1+  0.292  0.704  0.464  0.924
  Li4  Li1+  0.035  0.135  0.042  0.924
  Li1803  Li1+  0.492  0.504  0.864  0.924
  Li2531  Li1+  0.692  0.704  0.064  0.924
  Li1475  Li1+  0.508  0.004  0.436  0.924
  Li1606  Li1+  0.492  0.296  0.536  0.925
  Li3352  Li1+  0.908  0.796  0.964  0.925
  Li1690  Li1+  0.492  0.496  0.136  0.926
  Li655  Li1+  0.092  0.904  0.664  0.926
  Li1840  Li1+  0.508  0.796  0.164  0.926
  Li2315  Li1+  0.708  0.204  0.436  0.927
  Li1131  Li1+  0.292  0.704  0.064  0.927
  Li480  Li1+  0.035  0.735  0.442  0.928
  Li972  Li1+  0.308  0.396  0.964  0.929
  Li403  Li1+  0.092  0.504  0.864  0.929
  Li915  Li1+  0.308  0.204  0.436  0.929
  Li1706  Li1+  0.565  0.565  0.142  0.929
  Li1672  Li1+  0.508  0.396  0.964  0.930
  Li683  Li1+  0.092  0.904  0.864  0.931
  Li104  Li1+  0.108  0.196  0.764  0.931
  Li1354  Li1+  0.292  0.896  0.736  0.932
  Li943  Li1+  0.308  0.204  0.636  0.933
  Li291  Li1+  0.092  0.504  0.064  0.933
  Li1718  Li1+  0.492  0.496  0.336  0.934
  Li3007  Li1+  0.892  0.304  0.464  0.935
  Li1747  Li1+  0.492  0.504  0.464  0.936
  Li934  Li1+  0.292  0.296  0.736  0.936
  Li2568  Li1+  0.708  0.796  0.364  0.936
  Li132  Li1+  0.108  0.196  0.964  0.937
  Li579  Li1+  0.108  0.804  0.036  0.938
  Li2974  Li1+  0.808  0.204  0.264  0.938
  Li2775  Li1+  0.792  0.904  0.836  0.941
  Li1279  Li1+  0.308  0.804  0.036  0.941
  Li692  Li1+  0.108  0.996  0.964  0.942
  Li207  Li1+  0.092  0.304  0.464  0.942
  Li1410  Li1+  0.492  0.096  0.136  0.943
  Li2940  Li1+  0.971  0.104  0.853  0.943
  Li1040  Li1+  0.235  0.535  0.442  0.943
  Li1736  Li1+  0.571  0.504  0.253  0.944
  Li3342  Li1+  0.892  0.696  0.936  0.945
  Li1102  Li1+  0.292  0.496  0.936  0.945
  Li3138  Li1+  0.835  0.465  0.558  0.946
  Li698  Li1+  0.165  0.965  0.942  0.946
  Li1454  Li1+  0.565  0.165  0.342  0.946
  Li243  Li1+  0.108  0.204  0.636  0.946
  Li2819  Li1+  0.908  0.004  0.036  0.946
  Li2562  Li1+  0.629  0.796  0.353  0.946
  Li1915  Li1+  0.492  0.704  0.664  0.946
  Li1951  Li1+  0.508  0.604  0.836  0.947
  Li1678  Li1+  0.565  0.365  0.942  0.949
  Li1980  Li1+  0.508  0.996  0.164  0.950
  Li3028  Li1+  0.835  0.335  0.642  0.950
  Li935  Li1+  0.292  0.304  0.664  0.950
  Li3451  Li1+  0.829  0.804  0.647  0.951
  Li1727  Li1+  0.508  0.404  0.236  0.951
  Li3091  Li1+  0.892  0.504  0.064  0.952
  Li2316  Li1+  0.708  0.396  0.564  0.953
  Li86  Li1+  0.035  0.065  0.758  0.954
  Li262  Li1+  0.092  0.296  0.936  0.954
  Li1644  Li1+  0.508  0.396  0.764  0.955
  Li188  Li1+  0.108  0.396  0.364  0.955
  Li1578  Li1+  0.492  0.296  0.336  0.956
  Li3218  Li1+  0.965  0.565  0.942  0.956
  Li850  Li1+  0.292  0.296  0.136  0.956
  Li1896  Li1+  0.508  0.796  0.564  0.956
  Li1812  Li1+  0.508  0.596  0.964  0.957
  Li1215  Li1+  0.292  0.704  0.664  0.957
  Li1074  Li1+  0.292  0.496  0.736  0.958
  Li1645  Li1+  0.531  0.267  0.740  0.959
  Li1615  Li1+  0.508  0.204  0.436  0.960
  Li3114  Li1+  0.808  0.404  0.264  0.961
  Li2983  Li1+  0.869  0.233  0.240  0.961
  Li3140  Li1+  0.835  0.535  0.442  0.961
  Li1196  Li1+  0.308  0.796  0.564  0.962
  Li66  Li1+  0.092  0.096  0.536  0.963
  Li3202  Li1+  0.892  0.496  0.936  0.964
  Li1019  Li1+  0.292  0.504  0.264  0.965
  Li2064  Li1+  0.508  0.996  0.764  0.965
  Li999  Li1+  0.308  0.404  0.036  0.965
  Li2176  Li1+  0.708  0.196  0.564  0.965
  Li2799  Li1+  0.771  0.896  0.947  0.965
  Li216  Li1+  0.108  0.396  0.564  0.965
  Li571  Li1+  0.092  0.904  0.064  0.966
  Li2163  Li1+  0.629  0.004  0.447  0.967
  Li748  Li1+  0.308  0.196  0.364  0.967
  Li431  Li1+  0.092  0.704  0.064  0.967
  Li2708  Li1+  0.708  0.996  0.364  0.967
  Li1839  Li1+  0.508  0.604  0.036  0.969
  Li2334  Li1+  0.692  0.296  0.736  0.969
  Li2698  Li1+  0.692  0.896  0.336  0.970
  Li506  Li1+  0.035  0.665  0.758  0.970
  Li1811  Li1+  0.508  0.404  0.836  0.971
  Li907  Li1+  0.292  0.304  0.464  0.971
  Li1252  Li1+  0.308  0.796  0.964  0.971
  Li1264  Li1+  0.235  0.935  0.042  0.971
  Li2344  Li1+  0.708  0.396  0.764  0.971
  Li390  Li1+  0.165  0.565  0.742  0.972
  Li2157  Li1+  0.792  0.096  0.564  0.973
  Li3090  Li1+  0.892  0.496  0.136  0.973
  Li979  Li1+  0.371  0.296  0.947  0.976
  Li3123  Li1+  0.869  0.433  0.240  0.976
  Li1999  Li1+  0.492  0.904  0.264  0.977
  Li1551  Li1+  0.492  0.304  0.064  0.978
  Li1214  Li1+  0.292  0.696  0.736  0.978
  Li2794  Li1+  0.731  0.933  0.860  0.978
  Li2091  Li1+  0.508  0.804  0.836  0.979
  Li187  Li1+  0.108  0.204  0.236  0.979
  Li412  Li1+  0.108  0.596  0.964  0.980
  Li3211  Li1+  0.908  0.404  0.836  0.980
  Li1762  Li1+  0.565  0.565  0.542  0.980
  Li515  Li1+  0.092  0.704  0.664  0.981
  Li648  Li1+  0.035  0.935  0.642  0.981
  Li3155  Li1+  0.908  0.404  0.436  0.982
  Li2026  Li1+  0.492  0.896  0.536  0.982
  Li2390  Li1+  0.692  0.496  0.136  0.983
  Li263  Li1+  0.092  0.304  0.864  0.984
  Li54  Li1+  0.165  0.165  0.342  0.984
  Li2166  Li1+  0.692  0.096  0.536  0.985
  Li3050  Li1+  0.965  0.365  0.742  0.986
  Li110  Li1+  0.165  0.165  0.742  0.986
  Li1096  Li1+  0.235  0.535  0.842  0.986
  Li3324  Li1+  0.908  0.796  0.764  0.986
  Li2503  Li1+  0.692  0.504  0.864  0.987
  Li2007  Li1+  0.508  0.804  0.236  0.987
  Li962  Li1+  0.292  0.296  0.936  0.988
  Li2727  Li1+  0.692  0.904  0.464  0.989
  Li2326  Li1+  0.635  0.265  0.758  0.989
  Li2923  Li1+  0.892  0.104  0.864  0.989
  Li3408  Li1+  0.908  0.996  0.364  0.989
  Li3078  Li1+  0.965  0.365  0.942  0.989
  Li2595  Li1+  0.708  0.604  0.436  0.990
  Li2027  Li1+  0.492  0.904  0.464  0.990
  Li2051  Li1+  0.429  0.804  0.647  0.990
  Li2363  Li1+  0.692  0.304  0.864  0.990
  Li2707  Li1+  0.708  0.804  0.236  0.990
  Li3426  Li1+  0.892  0.896  0.536  0.991
  Li468  Li1+  0.108  0.796  0.364  0.991
  Li3183  Li1+  0.908  0.404  0.636  0.991
  Li2287  Li1+  0.708  0.204  0.236  0.992
  Li1448  Li1+  0.508  0.196  0.364  0.992
  Li767  Li1+  0.292  0.104  0.464  0.992
  Li1307  Li1+  0.308  0.804  0.236  0.993
  Li1242  Li1+  0.292  0.696  0.936  0.994
  Li2231  Li1+  0.708  0.004  0.836  0.994
  Li2522  Li1+  0.635  0.665  0.158  0.994
  Li2131  Li1+  0.792  0.104  0.236  0.994
  Li1858  Li1+  0.492  0.696  0.336  0.994
  Li2792  Li1+  0.708  0.996  0.964  0.995
  Li333  Li1+  0.165  0.435  0.258  0.995
  Li1587  Li1+  0.508  0.204  0.236  0.995
  Li1140  Li1+  0.308  0.796  0.164  0.995
  Li2293  Li1+  0.765  0.235  0.258  0.995
  Li1643  Li1+  0.508  0.204  0.636  0.995
  Li2755  Li1+  0.692  0.904  0.664  0.996
  Li2063  Li1+  0.508  0.804  0.636  0.996
  Li1710  Li1+  0.435  0.465  0.358  0.996
  Li38  Li1+  0.092  0.096  0.336  0.996
  Li361  Li1+  0.165  0.435  0.458  0.996
  Li1719  Li1+  0.492  0.504  0.264  0.996
  Li2782  Li1+  0.692  0.896  0.936  0.996
  Li2399  Li1+  0.708  0.404  0.036  0.996
  Li95  Li1+  0.092  0.104  0.664  0.997
  Li2175  Li1+  0.708  0.004  0.436  0.999
  Li2558  Li1+  0.692  0.696  0.336  0.999
  Li971  Li1+  0.308  0.204  0.836  0.999
  Li2511  Li1+  0.708  0.404  0.836  0.999
  Li2468  Li1+  0.635  0.535  0.642  0.999
  Li1411  Li1+  0.492  0.104  0.064  1.000
  Li3016  Li1+  0.908  0.396  0.564  1.000
  Li3418  Li1+  0.835  0.865  0.558  1.000
  Li2  Li1+  0.035  0.065  0.158  1.000
  Li25  Li1+  0.165  0.035  0.058  1.000
  Li26  Li1+  0.165  0.165  0.142  1.000
  Li30  Li1+  0.035  0.065  0.358  1.000
  Li53  Li1+  0.165  0.035  0.258  1.000
  Li58  Li1+  0.035  0.065  0.558  1.000
  Li81  Li1+  0.165  0.035  0.458  1.000
  Li82  Li1+  0.165  0.165  0.542  1.000
  Li88  Li1+  0.035  0.135  0.642  1.000
  Li109  Li1+  0.165  0.035  0.658  1.000
  Li114  Li1+  0.035  0.065  0.958  1.000
  Li116  Li1+  0.035  0.135  0.842  1.000
  Li137  Li1+  0.165  0.035  0.858  1.000
  Li138  Li1+  0.165  0.165  0.942  1.000
  Li142  Li1+  0.035  0.265  0.158  1.000
  Li144  Li1+  0.035  0.335  0.042  1.000
  Li165  Li1+  0.165  0.235  0.058  1.000
  Li166  Li1+  0.165  0.365  0.142  1.000
  Li170  Li1+  0.035  0.265  0.358  1.000
  Li172  Li1+  0.035  0.335  0.242  1.000
  Li193  Li1+  0.165  0.235  0.258  1.000
  Li194  Li1+  0.165  0.365  0.342  1.000
  Li198  Li1+  0.035  0.265  0.558  1.000
  Li200  Li1+  0.035  0.335  0.442  1.000
  Li221  Li1+  0.165  0.235  0.458  1.000
  Li222  Li1+  0.165  0.365  0.542  1.000
  Li226  Li1+  0.035  0.265  0.758  1.000
  Li249  Li1+  0.165  0.235  0.658  1.000
  Li250  Li1+  0.165  0.365  0.742  1.000
  Li254  Li1+  0.035  0.265  0.958  1.000
  Li256  Li1+  0.035  0.335  0.842  1.000
  Li277  Li1+  0.165  0.235  0.858  1.000
  Li278  Li1+  0.165  0.365  0.942  1.000
  Li284  Li1+  0.035  0.535  0.042  1.000
  Li305  Li1+  0.165  0.435  0.058  1.000
  Li306  Li1+  0.165  0.565  0.142  1.000
  Li312  Li1+  0.035  0.535  0.242  1.000
  Li334  Li1+  0.165  0.565  0.342  1.000
  Li338  Li1+  0.035  0.465  0.558  1.000
  Li340  Li1+  0.035  0.535  0.442  1.000
  Li362  Li1+  0.165  0.565  0.542  1.000
  Li366  Li1+  0.035  0.465  0.758  1.000
  Li368  Li1+  0.035  0.535  0.642  1.000
  Li394  Li1+  0.035  0.465  0.958  1.000
  Li396  Li1+  0.035  0.535  0.842  1.000
  Li417  Li1+  0.165  0.435  0.858  1.000
  Li418  Li1+  0.165  0.565  0.942  1.000
  Li422  Li1+  0.035  0.665  0.158  1.000
  Li424  Li1+  0.035  0.735  0.042  1.000
  Li445  Li1+  0.165  0.635  0.058  1.000
  Li446  Li1+  0.165  0.765  0.142  1.000
  Li450  Li1+  0.035  0.665  0.358  1.000
  Li452  Li1+  0.035  0.735  0.242  1.000
  Li474  Li1+  0.165  0.765  0.342  1.000
  Li478  Li1+  0.035  0.665  0.558  1.000
  Li501  Li1+  0.165  0.635  0.458  1.000
  Li502  Li1+  0.165  0.765  0.542  1.000
  Li508  Li1+  0.035  0.735  0.642  1.000
  Li529  Li1+  0.165  0.635  0.658  1.000
  Li530  Li1+  0.165  0.765  0.742  1.000
  Li534  Li1+  0.035  0.665  0.958  1.000
  Li536  Li1+  0.035  0.735  0.842  1.000
  Li557  Li1+  0.165  0.635  0.858  1.000
  Li558  Li1+  0.165  0.765  0.942  1.000
  Li562  Li1+  0.035  0.865  0.158  1.000
  Li564  Li1+  0.035  0.935  0.042  1.000
  Li585  Li1+  0.165  0.835  0.058  1.000
  Li586  Li1+  0.165  0.965  0.142  1.000
  Li590  Li1+  0.035  0.865  0.358  1.000
  Li592  Li1+  0.035  0.935  0.242  1.000
  Li613  Li1+  0.165  0.835  0.258  1.000
  Li614  Li1+  0.165  0.965  0.342  1.000
  Li618  Li1+  0.035  0.865  0.558  1.000
  Li620  Li1+  0.035  0.935  0.442  1.000
  Li641  Li1+  0.165  0.835  0.458  1.000
  Li642  Li1+  0.165  0.965  0.542  1.000
  Li646  Li1+  0.035  0.865  0.758  1.000
  Li670  Li1+  0.165  0.965  0.742  1.000
  Li676  Li1+  0.035  0.935  0.842  1.000
  Li697  Li1+  0.165  0.835  0.858  1.000
  Li702  Li1+  0.235  0.065  0.158  1.000
  Li725  Li1+  0.365  0.035  0.058  1.000
  Li726  Li1+  0.365  0.165  0.142  1.000
  Li730  Li1+  0.235  0.065  0.358  1.000
  Li732  Li1+  0.235  0.135  0.242  1.000
  Li753  Li1+  0.365  0.035  0.258  1.000
  Li754  Li1+  0.365  0.165  0.342  1.000
  Li758  Li1+  0.235  0.065  0.558  1.000
  Li760  Li1+  0.235  0.135  0.442  1.000
  Li781  Li1+  0.365  0.035  0.458  1.000
  Li782  Li1+  0.365  0.165  0.542  1.000
  Li786  Li1+  0.235  0.065  0.758  1.000
  Li788  Li1+  0.235  0.135  0.642  1.000
  Li809  Li1+  0.365  0.035  0.658  1.000
  Li810  Li1+  0.365  0.165  0.742  1.000
  Li816  Li1+  0.235  0.135  0.842  1.000
  Li837  Li1+  0.365  0.035  0.858  1.000
  Li838  Li1+  0.365  0.165  0.942  1.000
  Li842  Li1+  0.235  0.265  0.158  1.000
  Li844  Li1+  0.235  0.335  0.042  1.000
  Li865  Li1+  0.365  0.235  0.058  1.000
  Li866  Li1+  0.365  0.365  0.142  1.000
  Li872  Li1+  0.235  0.335  0.242  1.000
  Li893  Li1+  0.365  0.235  0.258  1.000
  Li898  Li1+  0.235  0.265  0.558  1.000
  Li900  Li1+  0.235  0.335  0.442  1.000
  Li921  Li1+  0.365  0.235  0.458  1.000
  Li922  Li1+  0.365  0.365  0.542  1.000
  Li926  Li1+  0.235  0.265  0.758  1.000
  Li928  Li1+  0.235  0.335  0.642  1.000
  Li949  Li1+  0.365  0.235  0.658  1.000
  Li950  Li1+  0.365  0.365  0.742  1.000
  Li954  Li1+  0.235  0.265  0.958  1.000
  Li956  Li1+  0.235  0.335  0.842  1.000
  Li977  Li1+  0.365  0.235  0.858  1.000
  Li978  Li1+  0.365  0.365  0.942  1.000
  Li982  Li1+  0.235  0.465  0.158  1.000
  Li984  Li1+  0.235  0.535  0.042  1.000
  Li1005  Li1+  0.365  0.435  0.058  1.000
  Li1006  Li1+  0.365  0.565  0.142  1.000
  Li1010  Li1+  0.235  0.465  0.358  1.000
  Li1012  Li1+  0.235  0.535  0.242  1.000
  Li1033  Li1+  0.365  0.435  0.258  1.000
  Li1038  Li1+  0.235  0.465  0.558  1.000
  Li1061  Li1+  0.365  0.435  0.458  1.000
  Li1062  Li1+  0.365  0.565  0.542  1.000
  Li1066  Li1+  0.235  0.465  0.758  1.000
  Li1068  Li1+  0.235  0.535  0.642  1.000
  Li1090  Li1+  0.365  0.565  0.742  1.000
  Li1094  Li1+  0.235  0.465  0.958  1.000
  Li1117  Li1+  0.365  0.435  0.858  1.000
  Li1118  Li1+  0.365  0.565  0.942  1.000
  Li1122  Li1+  0.235  0.665  0.158  1.000
  Li1124  Li1+  0.235  0.735  0.042  1.000
  Li1145  Li1+  0.365  0.635  0.058  1.000
  Li1146  Li1+  0.365  0.765  0.142  1.000
  Li1150  Li1+  0.235  0.665  0.358  1.000
  Li1152  Li1+  0.235  0.735  0.242  1.000
  Li1174  Li1+  0.365  0.765  0.342  1.000
  Li1178  Li1+  0.235  0.665  0.558  1.000
  Li1180  Li1+  0.235  0.735  0.442  1.000
  Li1201  Li1+  0.365  0.635  0.458  1.000
  Li1202  Li1+  0.365  0.765  0.542  1.000
  Li1206  Li1+  0.235  0.665  0.758  1.000
  Li1208  Li1+  0.235  0.735  0.642  1.000
  Li1229  Li1+  0.365  0.635  0.658  1.000
  Li1230  Li1+  0.365  0.765  0.742  1.000
  Li1234  Li1+  0.235  0.665  0.958  1.000
  Li1236  Li1+  0.235  0.735  0.842  1.000
  Li1257  Li1+  0.365  0.635  0.858  1.000
  Li1258  Li1+  0.365  0.765  0.942  1.000
  Li1262  Li1+  0.235  0.865  0.158  1.000
  Li1286  Li1+  0.365  0.965  0.142  1.000
  Li1290  Li1+  0.235  0.865  0.358  1.000
  Li1292  Li1+  0.235  0.935  0.242  1.000
  Li1313  Li1+  0.365  0.835  0.258  1.000
  Li1318  Li1+  0.235  0.865  0.558  1.000
  Li1320  Li1+  0.235  0.935  0.442  1.000
  Li1342  Li1+  0.365  0.965  0.542  1.000
  Li1346  Li1+  0.235  0.865  0.758  1.000
  Li1348  Li1+  0.235  0.935  0.642  1.000
  Li1369  Li1+  0.365  0.835  0.658  1.000
  Li1370  Li1+  0.365  0.965  0.742  1.000
  Li1374  Li1+  0.235  0.865  0.958  1.000
  Li1397  Li1+  0.365  0.835  0.858  1.000
  Li1398  Li1+  0.365  0.965  0.942  1.000
  Li1402  Li1+  0.435  0.065  0.158  1.000
  Li1404  Li1+  0.435  0.135  0.042  1.000
  Li1425  Li1+  0.565  0.035  0.058  1.000
  Li1426  Li1+  0.565  0.165  0.142  1.000
  Li1430  Li1+  0.435  0.065  0.358  1.000
  Li1432  Li1+  0.435  0.135  0.242  1.000
  Li1447  Li1+  0.508  0.004  0.236  1.000
  Li1453  Li1+  0.565  0.035  0.258  1.000
  Li1458  Li1+  0.435  0.065  0.558  1.000
  Li1476  Li1+  0.508  0.196  0.564  1.000
  Li1481  Li1+  0.565  0.035  0.458  1.000
  Li1482  Li1+  0.565  0.165  0.542  1.000
  Li1486  Li1+  0.435  0.065  0.758  1.000
  Li1488  Li1+  0.435  0.135  0.642  1.000
  Li1509  Li1+  0.565  0.035  0.658  1.000
  Li1510  Li1+  0.565  0.165  0.742  1.000
  Li1514  Li1+  0.435  0.065  0.958  1.000
  Li1516  Li1+  0.435  0.135  0.842  1.000
  Li1537  Li1+  0.565  0.035  0.858  1.000
  Li1538  Li1+  0.565  0.165  0.942  1.000
  Li1542  Li1+  0.435  0.265  0.158  1.000
  Li1544  Li1+  0.435  0.335  0.042  1.000
  Li1565  Li1+  0.565  0.235  0.058  1.000
  Li1566  Li1+  0.565  0.365  0.142  1.000
  Li1570  Li1+  0.435  0.265  0.358  1.000
  Li1572  Li1+  0.435  0.335  0.242  1.000
  Li1593  Li1+  0.565  0.235  0.258  1.000
  Li1594  Li1+  0.565  0.365  0.342  1.000
  Li1598  Li1+  0.435  0.265  0.558  1.000
  Li1600  Li1+  0.435  0.335  0.442  1.000
  Li1621  Li1+  0.565  0.235  0.458  1.000
  Li1622  Li1+  0.565  0.365  0.542  1.000
  Li1626  Li1+  0.435  0.265  0.758  1.000
  Li1628  Li1+  0.435  0.335  0.642  1.000
  Li1649  Li1+  0.565  0.235  0.658  1.000
  Li1650  Li1+  0.565  0.365  0.742  1.000
  Li1654  Li1+  0.435  0.265  0.958  1.000
  Li1656  Li1+  0.435  0.335  0.842  1.000
  Li1677  Li1+  0.565  0.235  0.858  1.000
  Li1682  Li1+  0.435  0.465  0.158  1.000
  Li1684  Li1+  0.435  0.535  0.042  1.000
  Li1705  Li1+  0.565  0.435  0.058  1.000
  Li1712  Li1+  0.435  0.535  0.242  1.000
  Li1733  Li1+  0.565  0.435  0.258  1.000
  Li1734  Li1+  0.565  0.565  0.342  1.000
  Li1738  Li1+  0.435  0.465  0.558  1.000
  Li1740  Li1+  0.435  0.535  0.442  1.000
  Li1761  Li1+  0.565  0.435  0.458  1.000
  Li1766  Li1+  0.435  0.465  0.758  1.000
  Li1768  Li1+  0.435  0.535  0.642  1.000
  Li1789  Li1+  0.565  0.435  0.658  1.000
  Li1790  Li1+  0.565  0.565  0.742  1.000
  Li1794  Li1+  0.435  0.465  0.958  1.000
  Li1796  Li1+  0.435  0.535  0.842  1.000
  Li1817  Li1+  0.565  0.435  0.858  1.000
  Li1818  Li1+  0.565  0.565  0.942  1.000
  Li1822  Li1+  0.435  0.665  0.158  1.000
  Li1824  Li1+  0.435  0.735  0.042  1.000
  Li1845  Li1+  0.565  0.635  0.058  1.000
  Li1846  Li1+  0.565  0.765  0.142  1.000
  Li1850  Li1+  0.435  0.665  0.358  1.000
  Li1852  Li1+  0.435  0.735  0.242  1.000
  Li1873  Li1+  0.565  0.635  0.258  1.000
  Li1874  Li1+  0.565  0.765  0.342  1.000
  Li1878  Li1+  0.435  0.665  0.558  1.000
  Li1880  Li1+  0.435  0.735  0.442  1.000
  Li1901  Li1+  0.565  0.635  0.458  1.000
  Li1902  Li1+  0.565  0.765  0.542  1.000
  Li1906  Li1+  0.435  0.665  0.758  1.000
  Li1908  Li1+  0.435  0.735  0.642  1.000
  Li1929  Li1+  0.565  0.635  0.658  1.000
  Li1930  Li1+  0.565  0.765  0.742  1.000
  Li1934  Li1+  0.435  0.665  0.958  1.000
  Li1936  Li1+  0.435  0.735  0.842  1.000
  Li1957  Li1+  0.565  0.635  0.858  1.000
  Li1958  Li1+  0.565  0.765  0.942  1.000
  Li1962  Li1+  0.435  0.865  0.158  1.000
  Li1964  Li1+  0.435  0.935  0.042  1.000
  Li1985  Li1+  0.565  0.835  0.058  1.000
  Li1986  Li1+  0.565  0.965  0.142  1.000
  Li1990  Li1+  0.435  0.865  0.358  1.000
  Li1992  Li1+  0.435  0.935  0.242  1.000
  Li2013  Li1+  0.565  0.835  0.258  1.000
  Li2014  Li1+  0.565  0.965  0.342  1.000
  Li2018  Li1+  0.435  0.865  0.558  1.000
  Li2020  Li1+  0.435  0.935  0.442  1.000
  Li2041  Li1+  0.565  0.835  0.458  1.000
  Li2042  Li1+  0.565  0.965  0.542  1.000
  Li2046  Li1+  0.435  0.865  0.758  1.000
  Li2048  Li1+  0.435  0.935  0.642  1.000
  Li2069  Li1+  0.565  0.835  0.658  1.000
  Li2070  Li1+  0.565  0.965  0.742  1.000
  Li2074  Li1+  0.435  0.865  0.958  1.000
  Li2076  Li1+  0.435  0.935  0.842  1.000
  Li2097  Li1+  0.565  0.835  0.858  1.000
  Li2098  Li1+  0.565  0.965  0.942  1.000
  Li2102  Li1+  0.635  0.065  0.158  1.000
  Li2104  Li1+  0.635  0.135  0.042  1.000
  Li2125  Li1+  0.765  0.035  0.058  1.000
  Li2126  Li1+  0.765  0.165  0.142  1.000
  Li2130  Li1+  0.635  0.065  0.358  1.000
  Li2132  Li1+  0.635  0.135  0.242  1.000
  Li2153  Li1+  0.765  0.035  0.258  1.000
  Li2154  Li1+  0.765  0.165  0.342  1.000
  Li2158  Li1+  0.635  0.065  0.558  1.000
  Li2160  Li1+  0.635  0.135  0.442  1.000
  Li2177  Li1+  0.731  0.067  0.540  1.000
  Li2181  Li1+  0.765  0.035  0.458  1.000
  Li2182  Li1+  0.765  0.165  0.542  1.000
  Li2186  Li1+  0.635  0.065  0.758  1.000
  Li2188  Li1+  0.635  0.135  0.642  1.000
  Li2209  Li1+  0.765  0.035  0.658  1.000
  Li2210  Li1+  0.765  0.165  0.742  1.000
  Li2214  Li1+  0.635  0.065  0.958  1.000
  Li2216  Li1+  0.635  0.135  0.842  1.000
  Li2237  Li1+  0.765  0.035  0.858  1.000
  Li2238  Li1+  0.765  0.165  0.942  1.000
  Li2242  Li1+  0.635  0.265  0.158  1.000
  Li2244  Li1+  0.635  0.335  0.042  1.000
  Li2265  Li1+  0.765  0.235  0.058  1.000
  Li2266  Li1+  0.765  0.365  0.142  1.000
  Li2270  Li1+  0.635  0.265  0.358  1.000
  Li2272  Li1+  0.635  0.335  0.242  1.000
  Li2294  Li1+  0.765  0.365  0.342  1.000
  Li2298  Li1+  0.635  0.265  0.558  1.000
  Li2300  Li1+  0.635  0.335  0.442  1.000
  Li2321  Li1+  0.765  0.235  0.458  1.000
  Li2322  Li1+  0.765  0.365  0.542  1.000
  Li2328  Li1+  0.635  0.335  0.642  1.000
  Li2343  Li1+  0.708  0.204  0.636  1.000
  Li2349  Li1+  0.765  0.235  0.658  1.000
  Li2350  Li1+  0.765  0.365  0.742  1.000
  Li2354  Li1+  0.635  0.265  0.958  1.000
  Li2356  Li1+  0.635  0.335  0.842  1.000
  Li2378  Li1+  0.765  0.365  0.942  1.000
  Li2382  Li1+  0.635  0.465  0.158  1.000
  Li2384  Li1+  0.635  0.535  0.042  1.000
  Li2405  Li1+  0.765  0.435  0.058  1.000
  Li2406  Li1+  0.765  0.565  0.142  1.000
  Li2410  Li1+  0.635  0.465  0.358  1.000
  Li2412  Li1+  0.635  0.535  0.242  1.000
  Li2434  Li1+  0.765  0.565  0.342  1.000
  Li2438  Li1+  0.635  0.465  0.558  1.000
  Li2440  Li1+  0.635  0.535  0.442  1.000
  Li2461  Li1+  0.765  0.435  0.458  1.000
  Li2466  Li1+  0.635  0.465  0.758  1.000
  Li2489  Li1+  0.765  0.435  0.658  1.000
  Li2490  Li1+  0.765  0.565  0.742  1.000
  Li2494  Li1+  0.635  0.465  0.958  1.000
  Li2496  Li1+  0.635  0.535  0.842  1.000
  Li2517  Li1+  0.765  0.435  0.858  1.000
  Li2518  Li1+  0.765  0.565  0.942  1.000
  Li2524  Li1+  0.635  0.735  0.042  1.000
  Li2545  Li1+  0.765  0.635  0.058  1.000
  Li2546  Li1+  0.765  0.765  0.142  1.000
  Li2550  Li1+  0.635  0.665  0.358  1.000
  Li2552  Li1+  0.635  0.735  0.242  1.000
  Li2573  Li1+  0.765  0.635  0.258  1.000
  Li2574  Li1+  0.765  0.765  0.342  1.000
  Li2578  Li1+  0.635  0.665  0.558  1.000
  Li2580  Li1+  0.635  0.735  0.442  1.000
  Li2601  Li1+  0.765  0.635  0.458  1.000
  Li2602  Li1+  0.765  0.765  0.542  1.000
  Li2606  Li1+  0.635  0.665  0.758  1.000
  Li2608  Li1+  0.635  0.735  0.642  1.000
  Li2629  Li1+  0.765  0.635  0.658  1.000
  Li2630  Li1+  0.765  0.765  0.742  1.000
  Li2634  Li1+  0.635  0.665  0.958  1.000
  Li2636  Li1+  0.635  0.735  0.842  1.000
  Li2657  Li1+  0.765  0.635  0.858  1.000
  Li2658  Li1+  0.765  0.765  0.942  1.000
  Li2662  Li1+  0.635  0.865  0.158  1.000
  Li2664  Li1+  0.635  0.935  0.042  1.000
  Li2685  Li1+  0.765  0.835  0.058  1.000
  Li2686  Li1+  0.765  0.965  0.142  1.000
  Li2690  Li1+  0.635  0.865  0.358  1.000
  Li2692  Li1+  0.635  0.935  0.242  1.000
  Li2713  Li1+  0.765  0.835  0.258  1.000
  Li2714  Li1+  0.765  0.965  0.342  1.000
  Li2718  Li1+  0.635  0.865  0.558  1.000
  Li2720  Li1+  0.635  0.935  0.442  1.000
  Li2741  Li1+  0.765  0.835  0.458  1.000
  Li2742  Li1+  0.765  0.965  0.542  1.000
  Li2746  Li1+  0.635  0.865  0.758  1.000
  Li2748  Li1+  0.635  0.935  0.642  1.000
  Li2769  Li1+  0.765  0.835  0.658  1.000
  Li2770  Li1+  0.765  0.965  0.742  1.000
  Li2774  Li1+  0.635  0.865  0.958  1.000
  Li2776  Li1+  0.635  0.935  0.842  1.000
  Li2797  Li1+  0.765  0.835  0.858  1.000
  Li2798  Li1+  0.765  0.965  0.942  1.000
  Li2802  Li1+  0.835  0.065  0.158  1.000
  Li2804  Li1+  0.835  0.135  0.042  1.000
  Li2825  Li1+  0.965  0.035  0.058  1.000
  Li2826  Li1+  0.965  0.165  0.142  1.000
  Li2830  Li1+  0.835  0.065  0.358  1.000
  Li2832  Li1+  0.835  0.135  0.242  1.000
  Li2853  Li1+  0.965  0.035  0.258  1.000
  Li2854  Li1+  0.965  0.165  0.342  1.000
  Li2858  Li1+  0.835  0.065  0.558  1.000
  Li2860  Li1+  0.835  0.135  0.442  1.000
  Li2881  Li1+  0.965  0.035  0.458  1.000
  Li2882  Li1+  0.965  0.165  0.542  1.000
  Li2886  Li1+  0.835  0.065  0.758  1.000
  Li2888  Li1+  0.835  0.135  0.642  1.000
  Li2909  Li1+  0.965  0.035  0.658  1.000
  Li2910  Li1+  0.965  0.165  0.742  1.000
  Li2914  Li1+  0.835  0.065  0.958  1.000
  Li2916  Li1+  0.835  0.135  0.842  1.000
  Li2937  Li1+  0.965  0.035  0.858  1.000
  Li2938  Li1+  0.965  0.165  0.942  1.000
  Li2942  Li1+  0.835  0.265  0.158  1.000
  Li2970  Li1+  0.835  0.265  0.358  1.000
  Li2972  Li1+  0.835  0.335  0.242  1.000
  Li2993  Li1+  0.965  0.235  0.258  1.000
  Li2994  Li1+  0.965  0.365  0.342  1.000
  Li2998  Li1+  0.835  0.265  0.558  1.000
  Li3000  Li1+  0.835  0.335  0.442  1.000
  Li3021  Li1+  0.965  0.235  0.458  1.000
  Li3022  Li1+  0.965  0.365  0.542  1.000
  Li3026  Li1+  0.835  0.265  0.758  1.000
  Li3043  Li1+  0.908  0.204  0.636  1.000
  Li3049  Li1+  0.965  0.235  0.658  1.000
  Li3054  Li1+  0.835  0.265  0.958  1.000
  Li3056  Li1+  0.835  0.335  0.842  1.000
  Li3077  Li1+  0.965  0.235  0.858  1.000
  Li3082  Li1+  0.835  0.465  0.158  1.000
  Li3084  Li1+  0.835  0.535  0.042  1.000
  Li3105  Li1+  0.965  0.435  0.058  1.000
  Li3106  Li1+  0.965  0.565  0.142  1.000
  Li3110  Li1+  0.835  0.465  0.358  1.000
  Li3112  Li1+  0.835  0.535  0.242  1.000
  Li3133  Li1+  0.965  0.435  0.258  1.000
  Li3134  Li1+  0.965  0.565  0.342  1.000
  Li3161  Li1+  0.965  0.435  0.458  1.000
  Li3162  Li1+  0.965  0.565  0.542  1.000
  Li3166  Li1+  0.835  0.465  0.758  1.000
  Li3168  Li1+  0.835  0.535  0.642  1.000
  Li3189  Li1+  0.965  0.435  0.658  1.000
  Li3190  Li1+  0.965  0.565  0.742  1.000
  Li3194  Li1+  0.835  0.465  0.958  1.000
  Li3196  Li1+  0.835  0.535  0.842  1.000
  Li3217  Li1+  0.965  0.435  0.858  1.000
  Li3222  Li1+  0.835  0.665  0.158  1.000
  Li3224  Li1+  0.835  0.735  0.042  1.000
  Li3245  Li1+  0.965  0.635  0.058  1.000
  Li3246  Li1+  0.965  0.765  0.142  1.000
  Li3250  Li1+  0.835  0.665  0.358  1.000
  Li3252  Li1+  0.835  0.735  0.242  1.000
  Li3273  Li1+  0.965  0.635  0.258  1.000
  Li3274  Li1+  0.965  0.765  0.342  1.000
  Li3278  Li1+  0.835  0.665  0.558  1.000
  Li3280  Li1+  0.835  0.735  0.442  1.000
  Li3301  Li1+  0.965  0.635  0.458  1.000
  Li3302  Li1+  0.965  0.765  0.542  1.000
  Li3306  Li1+  0.835  0.665  0.758  1.000
  Li3308  Li1+  0.835  0.735  0.642  1.000
  Li3329  Li1+  0.965  0.635  0.658  1.000
  Li3330  Li1+  0.965  0.765  0.742  1.000
  Li3334  Li1+  0.835  0.665  0.958  1.000
  Li3358  Li1+  0.965  0.765  0.942  1.000
  Li3362  Li1+  0.835  0.865  0.158  1.000
  Li3364  Li1+  0.835  0.935  0.042  1.000
  Li3385  Li1+  0.965  0.835  0.058  1.000
  Li3386  Li1+  0.965  0.965  0.142  1.000
  Li3390  Li1+  0.835  0.865  0.358  1.000
  Li3392  Li1+  0.835  0.935  0.242  1.000
  Li3413  Li1+  0.965  0.835  0.258  1.000
  Li3414  Li1+  0.965  0.965  0.342  1.000
  Li3420  Li1+  0.835  0.935  0.442  1.000
  Li3441  Li1+  0.965  0.835  0.458  1.000
  Li3442  Li1+  0.965  0.965  0.542  1.000
  Li3446  Li1+  0.835  0.865  0.758  1.000
  Li3448  Li1+  0.835  0.935  0.642  1.000
  Li3470  Li1+  0.965  0.965  0.742  1.000
  Li3474  Li1+  0.835  0.865  0.958  1.000
  Li3476  Li1+  0.835  0.935  0.842  1.000
  Li3497  Li1+  0.965  0.835  0.858  1.000
  Li3498  Li1+  0.965  0.965  0.942  1.000
  O32  O2-  0.140  0.021  0.085  1.000
  O32  O2-  0.140  0.021  0.285  1.000
  O32  O2-  0.140  0.021  0.485  1.000
  O32  O2-  0.140  0.021  0.685  1.000
  O32  O2-  0.140  0.021  0.885  1.000
  O32  O2-  0.140  0.221  0.085  1.000
  O32  O2-  0.140  0.221  0.285  1.000
  O32  O2-  0.140  0.221  0.485  1.000
  O32  O2-  0.140  0.221  0.685  1.000
  O32  O2-  0.140  0.221  0.885  1.000
  O32  O2-  0.140  0.421  0.085  1.000
  O32  O2-  0.140  0.421  0.285  1.000
  O32  O2-  0.140  0.421  0.485  1.000
  O32  O2-  0.140  0.421  0.685  1.000
  O32  O2-  0.140  0.421  0.885  1.000
  O32  O2-  0.140  0.621  0.085  1.000
  O32  O2-  0.140  0.621  0.285  1.000
  O32  O2-  0.140  0.621  0.485  1.000
  O32  O2-  0.140  0.621  0.685  1.000
  O32  O2-  0.140  0.621  0.885  1.000
  O32  O2-  0.140  0.821  0.085  1.000
  O32  O2-  0.140  0.821  0.285  1.000
  O32  O2-  0.140  0.821  0.485  1.000
  O32  O2-  0.140  0.821  0.685  1.000
  O32  O2-  0.140  0.821  0.885  1.000
  O32  O2-  0.340  0.021  0.085  1.000
  O32  O2-  0.340  0.021  0.285  1.000
  O32  O2-  0.340  0.021  0.485  1.000
  O32  O2-  0.340  0.021  0.685  1.000
  O32  O2-  0.340  0.021  0.885  1.000
  O32  O2-  0.340  0.221  0.085  1.000
  O32  O2-  0.340  0.221  0.285  1.000
  O32  O2-  0.340  0.221  0.485  1.000
  O32  O2-  0.340  0.221  0.685  1.000
  O32  O2-  0.340  0.221  0.885  1.000
  O32  O2-  0.340  0.421  0.085  1.000
  O32  O2-  0.340  0.421  0.285  1.000
  O32  O2-  0.340  0.421  0.485  1.000
  O32  O2-  0.340  0.421  0.685  1.000
  O32  O2-  0.340  0.421  0.885  1.000
  O32  O2-  0.340  0.621  0.085  1.000
  O32  O2-  0.340  0.621  0.285  1.000
  O32  O2-  0.340  0.621  0.485  1.000
  O32  O2-  0.340  0.621  0.685  1.000
  O32  O2-  0.340  0.621  0.885  1.000
  O32  O2-  0.340  0.821  0.085  1.000
  O32  O2-  0.340  0.821  0.285  1.000
  O32  O2-  0.340  0.821  0.485  1.000
  O32  O2-  0.340  0.821  0.685  1.000
  O32  O2-  0.340  0.821  0.885  1.000
  O32  O2-  0.540  0.021  0.085  1.000
  O32  O2-  0.540  0.021  0.285  1.000
  O32  O2-  0.540  0.021  0.485  1.000
  O32  O2-  0.540  0.021  0.685  1.000
  O32  O2-  0.540  0.021  0.885  1.000
  O32  O2-  0.540  0.221  0.085  1.000
  O32  O2-  0.540  0.221  0.285  1.000
  O32  O2-  0.540  0.221  0.485  1.000
  O32  O2-  0.540  0.221  0.685  1.000
  O32  O2-  0.540  0.221  0.885  1.000
  O32  O2-  0.540  0.421  0.085  1.000
  O32  O2-  0.540  0.421  0.285  1.000
  O32  O2-  0.540  0.421  0.485  1.000
  O32  O2-  0.540  0.421  0.685  1.000
  O32  O2-  0.540  0.421  0.885  1.000
  O32  O2-  0.540  0.621  0.085  1.000
  O32  O2-  0.540  0.621  0.285  1.000
  O32  O2-  0.540  0.621  0.485  1.000
  O32  O2-  0.540  0.621  0.685  1.000
  O32  O2-  0.540  0.621  0.885  1.000
  O32  O2-  0.540  0.821  0.085  1.000
  O32  O2-  0.540  0.821  0.285  1.000
  O32  O2-  0.540  0.821  0.485  1.000
  O32  O2-  0.540  0.821  0.685  1.000
  O32  O2-  0.540  0.821  0.885  1.000
  O32  O2-  0.740  0.021  0.085  1.000
  O32  O2-  0.740  0.021  0.285  1.000
  O32  O2-  0.740  0.021  0.485  1.000
  O32  O2-  0.740  0.021  0.685  1.000
  O32  O2-  0.740  0.021  0.885  1.000
  O32  O2-  0.740  0.221  0.085  1.000
  O32  O2-  0.740  0.221  0.285  1.000
  O32  O2-  0.740  0.221  0.485  1.000
  O32  O2-  0.740  0.221  0.685  1.000
  O32  O2-  0.740  0.221  0.885  1.000
  O32  O2-  0.740  0.421  0.085  1.000
  O32  O2-  0.740  0.421  0.285  1.000
  O32  O2-  0.740  0.421  0.485  1.000
  O32  O2-  0.740  0.421  0.685  1.000
  O32  O2-  0.740  0.421  0.885  1.000
  O32  O2-  0.740  0.621  0.085  1.000
  O32  O2-  0.740  0.621  0.285  1.000
  O32  O2-  0.740  0.621  0.485  1.000
  O32  O2-  0.740  0.621  0.685  1.000
  O32  O2-  0.740  0.621  0.885  1.000
  O32  O2-  0.740  0.821  0.085  1.000
  O32  O2-  0.740  0.821  0.285  1.000
  O32  O2-  0.740  0.821  0.485  1.000
  O32  O2-  0.740  0.821  0.685  1.000
  O32  O2-  0.740  0.821  0.885  1.000
  O32  O2-  0.940  0.021  0.085  1.000
  O32  O2-  0.940  0.021  0.285  1.000
  O32  O2-  0.940  0.021  0.485  1.000
  O32  O2-  0.940  0.021  0.685  1.000
  O32  O2-  0.940  0.021  0.885  1.000
  O32  O2-  0.940  0.221  0.085  1.000
  O32  O2-  0.940  0.221  0.285  1.000
  O32  O2-  0.940  0.221  0.485  1.000
  O32  O2-  0.940  0.221  0.685  1.000
  O32  O2-  0.940  0.221  0.885  1.000
  O32  O2-  0.940  0.421  0.085  1.000
  O32  O2-  0.940  0.421  0.285  1.000
  O32  O2-  0.940  0.421  0.485  1.000
  O32  O2-  0.940  0.421  0.685  1.000
  O32  O2-  0.940  0.421  0.885  1.000
  O32  O2-  0.940  0.621  0.085  1.000
  O32  O2-  0.940  0.621  0.285  1.000
  O32  O2-  0.940  0.621  0.485  1.000
  O32  O2-  0.940  0.621  0.685  1.000
  O32  O2-  0.940  0.621  0.885  1.000
  O32  O2-  0.940  0.821  0.085  1.000
  O32  O2-  0.940  0.821  0.285  1.000
  O32  O2-  0.940  0.821  0.485  1.000
  O32  O2-  0.940  0.821  0.685  1.000
  O32  O2-  0.940  0.821  0.885  1.000
  O33  O2-  0.140  0.179  0.115  1.000
  O33  O2-  0.140  0.179  0.315  1.000
  O33  O2-  0.140  0.179  0.515  1.000
  O33  O2-  0.140  0.179  0.715  1.000
  O33  O2-  0.140  0.179  0.915  1.000
  O33  O2-  0.140  0.379  0.115  1.000
  O33  O2-  0.140  0.379  0.315  1.000
  O33  O2-  0.140  0.379  0.515  1.000
  O33  O2-  0.140  0.379  0.715  1.000
  O33  O2-  0.140  0.379  0.915  1.000
  O33  O2-  0.140  0.579  0.115  1.000
  O33  O2-  0.140  0.579  0.315  1.000
  O33  O2-  0.140  0.579  0.515  1.000
  O33  O2-  0.140  0.579  0.715  1.000
  O33  O2-  0.140  0.579  0.915  1.000
  O33  O2-  0.140  0.779  0.115  1.000
  O33  O2-  0.140  0.779  0.315  1.000
  O33  O2-  0.140  0.779  0.515  1.000
  O33  O2-  0.140  0.779  0.715  1.000
  O33  O2-  0.140  0.779  0.915  1.000
  O33  O2-  0.140  0.979  0.115  1.000
  O33  O2-  0.140  0.979  0.315  1.000
  O33  O2-  0.140  0.979  0.515  1.000
  O33  O2-  0.140  0.979  0.715  1.000
  O33  O2-  0.140  0.979  0.915  1.000
  O33  O2-  0.340  0.179  0.115  1.000
  O33  O2-  0.340  0.179  0.315  1.000
  O33  O2-  0.340  0.179  0.515  1.000
  O33  O2-  0.340  0.179  0.715  1.000
  O33  O2-  0.340  0.179  0.915  1.000
  O33  O2-  0.340  0.379  0.115  1.000
  O33  O2-  0.340  0.379  0.315  1.000
  O33  O2-  0.340  0.379  0.515  1.000
  O33  O2-  0.340  0.379  0.715  1.000
  O33  O2-  0.340  0.379  0.915  1.000
  O33  O2-  0.340  0.579  0.115  1.000
  O33  O2-  0.340  0.579  0.315  1.000
  O33  O2-  0.340  0.579  0.515  1.000
  O33  O2-  0.340  0.579  0.715  1.000
  O33  O2-  0.340  0.579  0.915  1.000
  O33  O2-  0.340  0.779  0.115  1.000
  O33  O2-  0.340  0.779  0.315  1.000
  O33  O2-  0.340  0.779  0.515  1.000
  O33  O2-  0.340  0.779  0.715  1.000
  O33  O2-  0.340  0.779  0.915  1.000
  O33  O2-  0.340  0.979  0.115  1.000
  O33  O2-  0.340  0.979  0.315  1.000
  O33  O2-  0.340  0.979  0.515  1.000
  O33  O2-  0.340  0.979  0.715  1.000
  O33  O2-  0.340  0.979  0.915  1.000
  O33  O2-  0.540  0.179  0.115  1.000
  O33  O2-  0.540  0.179  0.315  1.000
  O33  O2-  0.540  0.179  0.515  1.000
  O33  O2-  0.540  0.179  0.715  1.000
  O33  O2-  0.540  0.179  0.915  1.000
  O33  O2-  0.540  0.379  0.115  1.000
  O33  O2-  0.540  0.379  0.315  1.000
  O33  O2-  0.540  0.379  0.515  1.000
  O33  O2-  0.540  0.379  0.715  1.000
  O33  O2-  0.540  0.379  0.915  1.000
  O33  O2-  0.540  0.579  0.115  1.000
  O33  O2-  0.540  0.579  0.315  1.000
  O33  O2-  0.540  0.579  0.515  1.000
  O33  O2-  0.540  0.579  0.715  1.000
  O33  O2-  0.540  0.579  0.915  1.000
  O33  O2-  0.540  0.779  0.115  1.000
  O33  O2-  0.540  0.779  0.315  1.000
  O33  O2-  0.540  0.779  0.515  1.000
  O33  O2-  0.540  0.779  0.715  1.000
  O33  O2-  0.540  0.779  0.915  1.000
  O33  O2-  0.540  0.979  0.115  1.000
  O33  O2-  0.540  0.979  0.315  1.000
  O33  O2-  0.540  0.979  0.515  1.000
  O33  O2-  0.540  0.979  0.715  1.000
  O33  O2-  0.540  0.979  0.915  1.000
  O33  O2-  0.740  0.179  0.115  1.000
  O33  O2-  0.740  0.179  0.315  1.000
  O33  O2-  0.740  0.179  0.515  1.000
  O33  O2-  0.740  0.179  0.715  1.000
  O33  O2-  0.740  0.179  0.915  1.000
  O33  O2-  0.740  0.379  0.115  1.000
  O33  O2-  0.740  0.379  0.315  1.000
  O33  O2-  0.740  0.379  0.515  1.000
  O33  O2-  0.740  0.379  0.715  1.000
  O33  O2-  0.740  0.379  0.915  1.000
  O33  O2-  0.740  0.579  0.115  1.000
  O33  O2-  0.740  0.579  0.315  1.000
  O33  O2-  0.740  0.579  0.515  1.000
  O33  O2-  0.740  0.579  0.715  1.000
  O33  O2-  0.740  0.579  0.915  1.000
  O33  O2-  0.740  0.779  0.115  1.000
  O33  O2-  0.740  0.779  0.315  1.000
  O33  O2-  0.740  0.779  0.515  1.000
  O33  O2-  0.740  0.779  0.715  1.000
  O33  O2-  0.740  0.779  0.915  1.000
  O33  O2-  0.740  0.979  0.115  1.000
  O33  O2-  0.740  0.979  0.315  1.000
  O33  O2-  0.740  0.979  0.515  1.000
  O33  O2-  0.740  0.979  0.715  1.000
  O33  O2-  0.740  0.979  0.915  1.000
  O33  O2-  0.940  0.179  0.115  1.000
  O33  O2-  0.940  0.179  0.315  1.000
  O33  O2-  0.940  0.179  0.515  1.000
  O33  O2-  0.940  0.179  0.715  1.000
  O33  O2-  0.940  0.179  0.915  1.000
  O33  O2-  0.940  0.379  0.115  1.000
  O33  O2-  0.940  0.379  0.315  1.000
  O33  O2-  0.940  0.379  0.515  1.000
  O33  O2-  0.940  0.379  0.715  1.000
  O33  O2-  0.940  0.379  0.915  1.000
  O33  O2-  0.940  0.579  0.115  1.000
  O33  O2-  0.940  0.579  0.315  1.000
  O33  O2-  0.940  0.579  0.515  1.000
  O33  O2-  0.940  0.579  0.715  1.000
  O33  O2-  0.940  0.579  0.915  1.000
  O33  O2-  0.940  0.779  0.115  1.000
  O33  O2-  0.940  0.779  0.315  1.000
  O33  O2-  0.940  0.779  0.515  1.000
  O33  O2-  0.940  0.779  0.715  1.000
  O33  O2-  0.940  0.779  0.915  1.000
  O33  O2-  0.940  0.979  0.115  1.000
  O33  O2-  0.940  0.979  0.315  1.000
  O33  O2-  0.940  0.979  0.515  1.000
  O33  O2-  0.940  0.979  0.715  1.000
  O33  O2-  0.940  0.979  0.915  1.000
  O34  O2-  0.136  0.031  0.167  1.000
  O34  O2-  0.136  0.031  0.367  1.000
  O34  O2-  0.136  0.031  0.567  1.000
  O34  O2-  0.136  0.031  0.767  1.000
  O34  O2-  0.136  0.031  0.967  1.000
  O34  O2-  0.136  0.231  0.167  1.000
  O34  O2-  0.136  0.231  0.367  1.000
  O34  O2-  0.136  0.231  0.567  1.000
  O34  O2-  0.136  0.231  0.767  1.000
  O34  O2-  0.136  0.231  0.967  1.000
  O34  O2-  0.136  0.431  0.167  1.000
  O34  O2-  0.136  0.431  0.367  1.000
  O34  O2-  0.136  0.431  0.567  1.000
  O34  O2-  0.136  0.431  0.767  1.000
  O34  O2-  0.136  0.431  0.967  1.000
  O34  O2-  0.136  0.631  0.167  1.000
  O34  O2-  0.136  0.631  0.367  1.000
  O34  O2-  0.136  0.631  0.567  1.000
  O34  O2-  0.136  0.631  0.767  1.000
  O34  O2-  0.136  0.631  0.967  1.000
  O34  O2-  0.136  0.831  0.167  1.000
  O34  O2-  0.136  0.831  0.367  1.000
  O34  O2-  0.136  0.831  0.567  1.000
  O34  O2-  0.136  0.831  0.767  1.000
  O34  O2-  0.136  0.831  0.967  1.000
  O34  O2-  0.336  0.031  0.167  1.000
  O34  O2-  0.336  0.031  0.367  1.000
  O34  O2-  0.336  0.031  0.567  1.000
  O34  O2-  0.336  0.031  0.767  1.000
  O34  O2-  0.336  0.031  0.967  1.000
  O34  O2-  0.336  0.231  0.167  1.000
  O34  O2-  0.336  0.231  0.367  1.000
  O34  O2-  0.336  0.231  0.567  1.000
  O34  O2-  0.336  0.231  0.767  1.000
  O34  O2-  0.336  0.231  0.967  1.000
  O34  O2-  0.336  0.431  0.167  1.000
  O34  O2-  0.336  0.431  0.367  1.000
  O34  O2-  0.336  0.431  0.567  1.000
  O34  O2-  0.336  0.431  0.767  1.000
  O34  O2-  0.336  0.431  0.967  1.000
  O34  O2-  0.336  0.631  0.167  1.000
  O34  O2-  0.336  0.631  0.367  1.000
  O34  O2-  0.336  0.631  0.567  1.000
  O34  O2-  0.336  0.631  0.767  1.000
  O34  O2-  0.336  0.631  0.967  1.000
  O34  O2-  0.336  0.831  0.167  1.000
  O34  O2-  0.336  0.831  0.367  1.000
  O34  O2-  0.336  0.831  0.567  1.000
  O34  O2-  0.336  0.831  0.767  1.000
  O34  O2-  0.336  0.831  0.967  1.000
  O34  O2-  0.536  0.031  0.167  1.000
  O34  O2-  0.536  0.031  0.367  1.000
  O34  O2-  0.536  0.031  0.567  1.000
  O34  O2-  0.536  0.031  0.767  1.000
  O34  O2-  0.536  0.031  0.967  1.000
  O34  O2-  0.536  0.231  0.167  1.000
  O34  O2-  0.536  0.231  0.367  1.000
  O34  O2-  0.536  0.231  0.567  1.000
  O34  O2-  0.536  0.231  0.767  1.000
  O34  O2-  0.536  0.231  0.967  1.000
  O34  O2-  0.536  0.431  0.167  1.000
  O34  O2-  0.536  0.431  0.367  1.000
  O34  O2-  0.536  0.431  0.567  1.000
  O34  O2-  0.536  0.431  0.767  1.000
  O34  O2-  0.536  0.431  0.967  1.000
  O34  O2-  0.536  0.631  0.167  1.000
  O34  O2-  0.536  0.631  0.367  1.000
  O34  O2-  0.536  0.631  0.567  1.000
  O34  O2-  0.536  0.631  0.767  1.000
  O34  O2-  0.536  0.631  0.967  1.000
  O34  O2-  0.536  0.831  0.167  1.000
  O34  O2-  0.536  0.831  0.367  1.000
  O34  O2-  0.536  0.831  0.567  1.000
  O34  O2-  0.536  0.831  0.767  1.000
  O34  O2-  0.536  0.831  0.967  1.000
  O34  O2-  0.736  0.031  0.167  1.000
  O34  O2-  0.736  0.031  0.367  1.000
  O34  O2-  0.736  0.031  0.567  1.000
  O34  O2-  0.736  0.031  0.767  1.000
  O34  O2-  0.736  0.031  0.967  1.000
  O34  O2-  0.736  0.231  0.167  1.000
  O34  O2-  0.736  0.231  0.367  1.000
  O34  O2-  0.736  0.231  0.567  1.000
  O34  O2-  0.736  0.231  0.767  1.000
  O34  O2-  0.736  0.231  0.967  1.000
  O34  O2-  0.736  0.431  0.167  1.000
  O34  O2-  0.736  0.431  0.367  1.000
  O34  O2-  0.736  0.431  0.567  1.000
  O34  O2-  0.736  0.431  0.767  1.000
  O34  O2-  0.736  0.431  0.967  1.000
  O34  O2-  0.736  0.631  0.167  1.000
  O34  O2-  0.736  0.631  0.367  1.000
  O34  O2-  0.736  0.631  0.567  1.000
  O34  O2-  0.736  0.631  0.767  1.000
  O34  O2-  0.736  0.631  0.967  1.000
  O34  O2-  0.736  0.831  0.167  1.000
  O34  O2-  0.736  0.831  0.367  1.000
  O34  O2-  0.736  0.831  0.567  1.000
  O34  O2-  0.736  0.831  0.767  1.000
  O34  O2-  0.736  0.831  0.967  1.000
  O34  O2-  0.936  0.031  0.167  1.000
  O34  O2-  0.936  0.031  0.367  1.000
  O34  O2-  0.936  0.031  0.567  1.000
  O34  O2-  0.936  0.031  0.767  1.000
  O34  O2-  0.936  0.031  0.967  1.000
  O34  O2-  0.936  0.231  0.167  1.000
  O34  O2-  0.936  0.231  0.367  1.000
  O34  O2-  0.936  0.231  0.567  1.000
  O34  O2-  0.936  0.231  0.767  1.000
  O34  O2-  0.936  0.231  0.967  1.000
  O34  O2-  0.936  0.431  0.167  1.000
  O34  O2-  0.936  0.431  0.367  1.000
  O34  O2-  0.936  0.431  0.567  1.000
  O34  O2-  0.936  0.431  0.767  1.000
  O34  O2-  0.936  0.431  0.967  1.000
  O34  O2-  0.936  0.631  0.167  1.000
  O34  O2-  0.936  0.631  0.367  1.000
  O34  O2-  0.936  0.631  0.567  1.000
  O34  O2-  0.936  0.631  0.767  1.000
  O34  O2-  0.936  0.631  0.967  1.000
  O34  O2-  0.936  0.831  0.167  1.000
  O34  O2-  0.936  0.831  0.367  1.000
  O34  O2-  0.936  0.831  0.567  1.000
  O34  O2-  0.936  0.831  0.767  1.000
  O34  O2-  0.936  0.831  0.967  1.000
  O35  O2-  0.136  0.169  0.033  1.000
  O35  O2-  0.136  0.169  0.233  1.000
  O35  O2-  0.136  0.169  0.433  1.000
  O35  O2-  0.136  0.169  0.633  1.000
  O35  O2-  0.136  0.169  0.833  1.000
  O35  O2-  0.136  0.369  0.033  1.000
  O35  O2-  0.136  0.369  0.233  1.000
  O35  O2-  0.136  0.369  0.433  1.000
  O35  O2-  0.136  0.369  0.633  1.000
  O35  O2-  0.136  0.369  0.833  1.000
  O35  O2-  0.136  0.569  0.033  1.000
  O35  O2-  0.136  0.569  0.233  1.000
  O35  O2-  0.136  0.569  0.433  1.000
  O35  O2-  0.136  0.569  0.633  1.000
  O35  O2-  0.136  0.569  0.833  1.000
  O35  O2-  0.136  0.769  0.033  1.000
  O35  O2-  0.136  0.769  0.233  1.000
  O35  O2-  0.136  0.769  0.433  1.000
  O35  O2-  0.136  0.769  0.633  1.000
  O35  O2-  0.136  0.769  0.833  1.000
  O35  O2-  0.136  0.969  0.033  1.000
  O35  O2-  0.136  0.969  0.233  1.000
  O35  O2-  0.136  0.969  0.433  1.000
  O35  O2-  0.136  0.969  0.633  1.000
  O35  O2-  0.136  0.969  0.833  1.000
  O35  O2-  0.336  0.169  0.033  1.000
  O35  O2-  0.336  0.169  0.233  1.000
  O35  O2-  0.336  0.169  0.433  1.000
  O35  O2-  0.336  0.169  0.633  1.000
  O35  O2-  0.336  0.169  0.833  1.000
  O35  O2-  0.336  0.369  0.033  1.000
  O35  O2-  0.336  0.369  0.233  1.000
  O35  O2-  0.336  0.369  0.433  1.000
  O35  O2-  0.336  0.369  0.633  1.000
  O35  O2-  0.336  0.369  0.833  1.000
  O35  O2-  0.336  0.569  0.033  1.000
  O35  O2-  0.336  0.569  0.233  1.000
  O35  O2-  0.336  0.569  0.433  1.000
  O35  O2-  0.336  0.569  0.633  1.000
  O35  O2-  0.336  0.569  0.833  1.000
  O35  O2-  0.336  0.769  0.033  1.000
  O35  O2-  0.336  0.769  0.233  1.000
  O35  O2-  0.336  0.769  0.433  1.000
  O35  O2-  0.336  0.769  0.633  1.000
  O35  O2-  0.336  0.769  0.833  1.000
  O35  O2-  0.336  0.969  0.033  1.000
  O35  O2-  0.336  0.969  0.233  1.000
  O35  O2-  0.336  0.969  0.433  1.000
  O35  O2-  0.336  0.969  0.633  1.000
  O35  O2-  0.336  0.969  0.833  1.000
  O35  O2-  0.536  0.169  0.033  1.000
  O35  O2-  0.536  0.169  0.233  1.000
  O35  O2-  0.536  0.169  0.433  1.000
  O35  O2-  0.536  0.169  0.633  1.000
  O35  O2-  0.536  0.169  0.833  1.000
  O35  O2-  0.536  0.369  0.033  1.000
  O35  O2-  0.536  0.369  0.233  1.000
  O35  O2-  0.536  0.369  0.433  1.000
  O35  O2-  0.536  0.369  0.633  1.000
  O35  O2-  0.536  0.369  0.833  1.000
  O35  O2-  0.536  0.569  0.033  1.000
  O35  O2-  0.536  0.569  0.233  1.000
  O35  O2-  0.536  0.569  0.433  1.000
  O35  O2-  0.536  0.569  0.633  1.000
  O35  O2-  0.536  0.569  0.833  1.000
  O35  O2-  0.536  0.769  0.033  1.000
  O35  O2-  0.536  0.769  0.233  1.000
  O35  O2-  0.536  0.769  0.433  1.000
  O35  O2-  0.536  0.769  0.633  1.000
  O35  O2-  0.536  0.769  0.833  1.000
  O35  O2-  0.536  0.969  0.033  1.000
  O35  O2-  0.536  0.969  0.233  1.000
  O35  O2-  0.536  0.969  0.433  1.000
  O35  O2-  0.536  0.969  0.633  1.000
  O35  O2-  0.536  0.969  0.833  1.000
  O35  O2-  0.736  0.169  0.033  1.000
  O35  O2-  0.736  0.169  0.233  1.000
  O35  O2-  0.736  0.169  0.433  1.000
  O35  O2-  0.736  0.169  0.633  1.000
  O35  O2-  0.736  0.169  0.833  1.000
  O35  O2-  0.736  0.369  0.033  1.000
  O35  O2-  0.736  0.369  0.233  1.000
  O35  O2-  0.736  0.369  0.433  1.000
  O35  O2-  0.736  0.369  0.633  1.000
  O35  O2-  0.736  0.369  0.833  1.000
  O35  O2-  0.736  0.569  0.033  1.000
  O35  O2-  0.736  0.569  0.233  1.000
  O35  O2-  0.736  0.569  0.433  1.000
  O35  O2-  0.736  0.569  0.633  1.000
  O35  O2-  0.736  0.569  0.833  1.000
  O35  O2-  0.736  0.769  0.033  1.000
  O35  O2-  0.736  0.769  0.233  1.000
  O35  O2-  0.736  0.769  0.433  1.000
  O35  O2-  0.736  0.769  0.633  1.000
  O35  O2-  0.736  0.769  0.833  1.000
  O35  O2-  0.736  0.969  0.033  1.000
  O35  O2-  0.736  0.969  0.233  1.000
  O35  O2-  0.736  0.969  0.433  1.000
  O35  O2-  0.736  0.969  0.633  1.000
  O35  O2-  0.736  0.969  0.833  1.000
  O35  O2-  0.936  0.169  0.033  1.000
  O35  O2-  0.936  0.169  0.233  1.000
  O35  O2-  0.936  0.169  0.433  1.000
  O35  O2-  0.936  0.169  0.633  1.000
  O35  O2-  0.936  0.169  0.833  1.000
  O35  O2-  0.936  0.369  0.033  1.000
  O35  O2-  0.936  0.369  0.233  1.000
  O35  O2-  0.936  0.369  0.433  1.000
  O35  O2-  0.936  0.369  0.633  1.000
  O35  O2-  0.936  0.369  0.833  1.000
  O35  O2-  0.936  0.569  0.033  1.000
  O35  O2-  0.936  0.569  0.233  1.000
  O35  O2-  0.936  0.569  0.433  1.000
  O35  O2-  0.936  0.569  0.633  1.000
  O35  O2-  0.936  0.569  0.833  1.000
  O35  O2-  0.936  0.769  0.033  1.000
  O35  O2-  0.936  0.769  0.233  1.000
  O35  O2-  0.936  0.769  0.433  1.000
  O35  O2-  0.936  0.769  0.633  1.000
  O35  O2-  0.936  0.769  0.833  1.000
  O35  O2-  0.936  0.969  0.033  1.000
  O35  O2-  0.936  0.969  0.233  1.000
  O35  O2-  0.936  0.969  0.433  1.000
  O35  O2-  0.936  0.969  0.633  1.000
  O35  O2-  0.936  0.969  0.833  1.000
  O36  O2-  0.120  0.064  0.006  1.000
  O36  O2-  0.120  0.064  0.206  1.000
  O36  O2-  0.120  0.064  0.406  1.000
  O36  O2-  0.120  0.064  0.606  1.000
  O36  O2-  0.120  0.064  0.806  1.000
  O36  O2-  0.120  0.264  0.006  1.000
  O36  O2-  0.120  0.264  0.206  1.000
  O36  O2-  0.120  0.264  0.406  1.000
  O36  O2-  0.120  0.264  0.606  1.000
  O36  O2-  0.120  0.264  0.806  1.000
  O36  O2-  0.120  0.464  0.006  1.000
  O36  O2-  0.120  0.464  0.206  1.000
  O36  O2-  0.120  0.464  0.406  1.000
  O36  O2-  0.120  0.464  0.606  1.000
  O36  O2-  0.120  0.464  0.806  1.000
  O36  O2-  0.120  0.664  0.006  1.000
  O36  O2-  0.120  0.664  0.206  1.000
  O36  O2-  0.120  0.664  0.406  1.000
  O36  O2-  0.120  0.664  0.606  1.000
  O36  O2-  0.120  0.664  0.806  1.000
  O36  O2-  0.120  0.864  0.006  1.000
  O36  O2-  0.120  0.864  0.206  1.000
  O36  O2-  0.120  0.864  0.406  1.000
  O36  O2-  0.120  0.864  0.606  1.000
  O36  O2-  0.120  0.864  0.806  1.000
  O36  O2-  0.320  0.064  0.006  1.000
  O36  O2-  0.320  0.064  0.206  1.000
  O36  O2-  0.320  0.064  0.406  1.000
  O36  O2-  0.320  0.064  0.606  1.000
  O36  O2-  0.320  0.064  0.806  1.000
  O36  O2-  0.320  0.264  0.006  1.000
  O36  O2-  0.320  0.264  0.206  1.000
  O36  O2-  0.320  0.264  0.406  1.000
  O36  O2-  0.320  0.264  0.606  1.000
  O36  O2-  0.320  0.264  0.806  1.000
  O36  O2-  0.320  0.464  0.006  1.000
  O36  O2-  0.320  0.464  0.206  1.000
  O36  O2-  0.320  0.464  0.406  1.000
  O36  O2-  0.320  0.464  0.606  1.000
  O36  O2-  0.320  0.464  0.806  1.000
  O36  O2-  0.320  0.664  0.006  1.000
  O36  O2-  0.320  0.664  0.206  1.000
  O36  O2-  0.320  0.664  0.406  1.000
  O36  O2-  0.320  0.664  0.606  1.000
  O36  O2-  0.320  0.664  0.806  1.000
  O36  O2-  0.320  0.864  0.006  1.000
  O36  O2-  0.320  0.864  0.206  1.000
  O36  O2-  0.320  0.864  0.406  1.000
  O36  O2-  0.320  0.864  0.606  1.000
  O36  O2-  0.320  0.864  0.806  1.000
  O36  O2-  0.520  0.064  0.006  1.000
  O36  O2-  0.520  0.064  0.206  1.000
  O36  O2-  0.520  0.064  0.406  1.000
  O36  O2-  0.520  0.064  0.606  1.000
  O36  O2-  0.520  0.064  0.806  1.000
  O36  O2-  0.520  0.264  0.006  1.000
  O36  O2-  0.520  0.264  0.206  1.000
  O36  O2-  0.520  0.264  0.406  1.000
  O36  O2-  0.520  0.264  0.606  1.000
  O36  O2-  0.520  0.264  0.806  1.000
  O36  O2-  0.520  0.464  0.006  1.000
  O36  O2-  0.520  0.464  0.206  1.000
  O36  O2-  0.520  0.464  0.406  1.000
  O36  O2-  0.520  0.464  0.606  1.000
  O36  O2-  0.520  0.464  0.806  1.000
  O36  O2-  0.520  0.664  0.006  1.000
  O36  O2-  0.520  0.664  0.206  1.000
  O36  O2-  0.520  0.664  0.406  1.000
  O36  O2-  0.520  0.664  0.606  1.000
  O36  O2-  0.520  0.664  0.806  1.000
  O36  O2-  0.520  0.864  0.006  1.000
  O36  O2-  0.520  0.864  0.206  1.000
  O36  O2-  0.520  0.864  0.406  1.000
  O36  O2-  0.520  0.864  0.606  1.000
  O36  O2-  0.520  0.864  0.806  1.000
  O36  O2-  0.720  0.064  0.006  1.000
  O36  O2-  0.720  0.064  0.206  1.000
  O36  O2-  0.720  0.064  0.406  1.000
  O36  O2-  0.720  0.064  0.606  1.000
  O36  O2-  0.720  0.064  0.806  1.000
  O36  O2-  0.720  0.264  0.006  1.000
  O36  O2-  0.720  0.264  0.206  1.000
  O36  O2-  0.720  0.264  0.406  1.000
  O36  O2-  0.720  0.264  0.606  1.000
  O36  O2-  0.720  0.264  0.806  1.000
  O36  O2-  0.720  0.464  0.006  1.000
  O36  O2-  0.720  0.464  0.206  1.000
  O36  O2-  0.720  0.464  0.406  1.000
  O36  O2-  0.720  0.464  0.606  1.000
  O36  O2-  0.720  0.464  0.806  1.000
  O36  O2-  0.720  0.664  0.006  1.000
  O36  O2-  0.720  0.664  0.206  1.000
  O36  O2-  0.720  0.664  0.406  1.000
  O36  O2-  0.720  0.664  0.606  1.000
  O36  O2-  0.720  0.664  0.806  1.000
  O36  O2-  0.720  0.864  0.006  1.000
  O36  O2-  0.720  0.864  0.206  1.000
  O36  O2-  0.720  0.864  0.406  1.000
  O36  O2-  0.720  0.864  0.606  1.000
  O36  O2-  0.720  0.864  0.806  1.000
  O36  O2-  0.920  0.064  0.006  1.000
  O36  O2-  0.920  0.064  0.206  1.000
  O36  O2-  0.920  0.064  0.406  1.000
  O36  O2-  0.920  0.064  0.606  1.000
  O36  O2-  0.920  0.064  0.806  1.000
  O36  O2-  0.920  0.264  0.006  1.000
  O36  O2-  0.920  0.264  0.206  1.000
  O36  O2-  0.920  0.264  0.406  1.000
  O36  O2-  0.920  0.264  0.606  1.000
  O36  O2-  0.920  0.264  0.806  1.000
  O36  O2-  0.920  0.464  0.006  1.000
  O36  O2-  0.920  0.464  0.206  1.000
  O36  O2-  0.920  0.464  0.406  1.000
  O36  O2-  0.920  0.464  0.606  1.000
  O36  O2-  0.920  0.464  0.806  1.000
  O36  O2-  0.920  0.664  0.006  1.000
  O36  O2-  0.920  0.664  0.206  1.000
  O36  O2-  0.920  0.664  0.406  1.000
  O36  O2-  0.920  0.664  0.606  1.000
  O36  O2-  0.920  0.664  0.806  1.000
  O36  O2-  0.920  0.864  0.006  1.000
  O36  O2-  0.920  0.864  0.206  1.000
  O36  O2-  0.920  0.864  0.406  1.000
  O36  O2-  0.920  0.864  0.606  1.000
  O36  O2-  0.920  0.864  0.806  1.000
  O37  O2-  0.120  0.136  0.194  1.000
  O37  O2-  0.120  0.136  0.394  1.000
  O37  O2-  0.120  0.136  0.594  1.000
  O37  O2-  0.120  0.136  0.794  1.000
  O37  O2-  0.120  0.136  0.994  1.000
  O37  O2-  0.120  0.336  0.194  1.000
  O37  O2-  0.120  0.336  0.394  1.000
  O37  O2-  0.120  0.336  0.594  1.000
  O37  O2-  0.120  0.336  0.794  1.000
  O37  O2-  0.120  0.336  0.994  1.000
  O37  O2-  0.120  0.536  0.194  1.000
  O37  O2-  0.120  0.536  0.394  1.000
  O37  O2-  0.120  0.536  0.594  1.000
  O37  O2-  0.120  0.536  0.794  1.000
  O37  O2-  0.120  0.536  0.994  1.000
  O37  O2-  0.120  0.736  0.194  1.000
  O37  O2-  0.120  0.736  0.394  1.000
  O37  O2-  0.120  0.736  0.594  1.000
  O37  O2-  0.120  0.736  0.794  1.000
  O37  O2-  0.120  0.736  0.994  1.000
  O37  O2-  0.120  0.936  0.194  1.000
  O37  O2-  0.120  0.936  0.394  1.000
  O37  O2-  0.120  0.936  0.594  1.000
  O37  O2-  0.120  0.936  0.794  1.000
  O37  O2-  0.120  0.936  0.994  1.000
  O37  O2-  0.320  0.136  0.194  1.000
  O37  O2-  0.320  0.136  0.394  1.000
  O37  O2-  0.320  0.136  0.594  1.000
  O37  O2-  0.320  0.136  0.794  1.000
  O37  O2-  0.320  0.136  0.994  1.000
  O37  O2-  0.320  0.336  0.194  1.000
  O37  O2-  0.320  0.336  0.394  1.000
  O37  O2-  0.320  0.336  0.594  1.000
  O37  O2-  0.320  0.336  0.794  1.000
  O37  O2-  0.320  0.336  0.994  1.000
  O37  O2-  0.320  0.536  0.194  1.000
  O37  O2-  0.320  0.536  0.394  1.000
  O37  O2-  0.320  0.536  0.594  1.000
  O37  O2-  0.320  0.536  0.794  1.000
  O37  O2-  0.320  0.536  0.994  1.000
  O37  O2-  0.320  0.736  0.194  1.000
  O37  O2-  0.320  0.736  0.394  1.000
  O37  O2-  0.320  0.736  0.594  1.000
  O37  O2-  0.320  0.736  0.794  1.000
  O37  O2-  0.320  0.736  0.994  1.000
  O37  O2-  0.320  0.936  0.194  1.000
  O37  O2-  0.320  0.936  0.394  1.000
  O37  O2-  0.320  0.936  0.594  1.000
  O37  O2-  0.320  0.936  0.794  1.000
  O37  O2-  0.320  0.936  0.994  1.000
  O37  O2-  0.520  0.136  0.194  1.000
  O37  O2-  0.520  0.136  0.394  1.000
  O37  O2-  0.520  0.136  0.594  1.000
  O37  O2-  0.520  0.136  0.794  1.000
  O37  O2-  0.520  0.136  0.994  1.000
  O37  O2-  0.520  0.336  0.194  1.000
  O37  O2-  0.520  0.336  0.394  1.000
  O37  O2-  0.520  0.336  0.594  1.000
  O37  O2-  0.520  0.336  0.794  1.000
  O37  O2-  0.520  0.336  0.994  1.000
  O37  O2-  0.520  0.536  0.194  1.000
  O37  O2-  0.520  0.536  0.394  1.000
  O37  O2-  0.520  0.536  0.594  1.000
  O37  O2-  0.520  0.536  0.794  1.000
  O37  O2-  0.520  0.536  0.994  1.000
  O37  O2-  0.520  0.736  0.194  1.000
  O37  O2-  0.520  0.736  0.394  1.000
  O37  O2-  0.520  0.736  0.594  1.000
  O37  O2-  0.520  0.736  0.794  1.000
  O37  O2-  0.520  0.736  0.994  1.000
  O37  O2-  0.520  0.936  0.194  1.000
  O37  O2-  0.520  0.936  0.394  1.000
  O37  O2-  0.520  0.936  0.594  1.000
  O37  O2-  0.520  0.936  0.794  1.000
  O37  O2-  0.520  0.936  0.994  1.000
  O37  O2-  0.720  0.136  0.194  1.000
  O37  O2-  0.720  0.136  0.394  1.000
  O37  O2-  0.720  0.136  0.594  1.000
  O37  O2-  0.720  0.136  0.794  1.000
  O37  O2-  0.720  0.136  0.994  1.000
  O37  O2-  0.720  0.336  0.194  1.000
  O37  O2-  0.720  0.336  0.394  1.000
  O37  O2-  0.720  0.336  0.594  1.000
  O37  O2-  0.720  0.336  0.794  1.000
  O37  O2-  0.720  0.336  0.994  1.000
  O37  O2-  0.720  0.536  0.194  1.000
  O37  O2-  0.720  0.536  0.394  1.000
  O37  O2-  0.720  0.536  0.594  1.000
  O37  O2-  0.720  0.536  0.794  1.000
  O37  O2-  0.720  0.536  0.994  1.000
  O37  O2-  0.720  0.736  0.194  1.000
  O37  O2-  0.720  0.736  0.394  1.000
  O37  O2-  0.720  0.736  0.594  1.000
  O37  O2-  0.720  0.736  0.794  1.000
  O37  O2-  0.720  0.736  0.994  1.000
  O37  O2-  0.720  0.936  0.194  1.000
  O37  O2-  0.720  0.936  0.394  1.000
  O37  O2-  0.720  0.936  0.594  1.000
  O37  O2-  0.720  0.936  0.794  1.000
  O37  O2-  0.720  0.936  0.994  1.000
  O37  O2-  0.920  0.136  0.194  1.000
  O37  O2-  0.920  0.136  0.394  1.000
  O37  O2-  0.920  0.136  0.594  1.000
  O37  O2-  0.920  0.136  0.794  1.000
  O37  O2-  0.920  0.136  0.994  1.000
  O37  O2-  0.920  0.336  0.194  1.000
  O37  O2-  0.920  0.336  0.394  1.000
  O37  O2-  0.920  0.336  0.594  1.000
  O37  O2-  0.920  0.336  0.794  1.000
  O37  O2-  0.920  0.336  0.994  1.000
  O37  O2-  0.920  0.536  0.194  1.000
  O37  O2-  0.920  0.536  0.394  1.000
  O37  O2-  0.920  0.536  0.594  1.000
  O37  O2-  0.920  0.536  0.794  1.000
  O37  O2-  0.920  0.536  0.994  1.000
  O37  O2-  0.920  0.736  0.194  1.000
  O37  O2-  0.920  0.736  0.394  1.000
  O37  O2-  0.920  0.736  0.594  1.000
  O37  O2-  0.920  0.736  0.794  1.000
  O37  O2-  0.920  0.736  0.994  1.000
  O37  O2-  0.920  0.936  0.194  1.000
  O37  O2-  0.920  0.936  0.394  1.000
  O37  O2-  0.920  0.936  0.594  1.000
  O37  O2-  0.920  0.936  0.794  1.000
  O37  O2-  0.920  0.936  0.994  1.000
  O38  O2-  0.119  0.081  0.084  1.000
  O38  O2-  0.119  0.081  0.284  1.000
  O38  O2-  0.119  0.081  0.484  1.000
  O38  O2-  0.119  0.081  0.684  1.000
  O38  O2-  0.119  0.081  0.884  1.000
  O38  O2-  0.119  0.281  0.084  1.000
  O38  O2-  0.119  0.281  0.284  1.000
  O38  O2-  0.119  0.281  0.484  1.000
  O38  O2-  0.119  0.281  0.684  1.000
  O38  O2-  0.119  0.281  0.884  1.000
  O38  O2-  0.119  0.481  0.084  1.000
  O38  O2-  0.119  0.481  0.284  1.000
  O38  O2-  0.119  0.481  0.484  1.000
  O38  O2-  0.119  0.481  0.684  1.000
  O38  O2-  0.119  0.481  0.884  1.000
  O38  O2-  0.119  0.681  0.084  1.000
  O38  O2-  0.119  0.681  0.284  1.000
  O38  O2-  0.119  0.681  0.484  1.000
  O38  O2-  0.119  0.681  0.684  1.000
  O38  O2-  0.119  0.681  0.884  1.000
  O38  O2-  0.119  0.881  0.084  1.000
  O38  O2-  0.119  0.881  0.284  1.000
  O38  O2-  0.119  0.881  0.484  1.000
  O38  O2-  0.119  0.881  0.684  1.000
  O38  O2-  0.119  0.881  0.884  1.000
  O38  O2-  0.319  0.081  0.084  1.000
  O38  O2-  0.319  0.081  0.284  1.000
  O38  O2-  0.319  0.081  0.484  1.000
  O38  O2-  0.319  0.081  0.684  1.000
  O38  O2-  0.319  0.081  0.884  1.000
  O38  O2-  0.319  0.281  0.084  1.000
  O38  O2-  0.319  0.281  0.284  1.000
  O38  O2-  0.319  0.281  0.484  1.000
  O38  O2-  0.319  0.281  0.684  1.000
  O38  O2-  0.319  0.281  0.884  1.000
  O38  O2-  0.319  0.481  0.084  1.000
  O38  O2-  0.319  0.481  0.284  1.000
  O38  O2-  0.319  0.481  0.484  1.000
  O38  O2-  0.319  0.481  0.684  1.000
  O38  O2-  0.319  0.481  0.884  1.000
  O38  O2-  0.319  0.681  0.084  1.000
  O38  O2-  0.319  0.681  0.284  1.000
  O38  O2-  0.319  0.681  0.484  1.000
  O38  O2-  0.319  0.681  0.684  1.000
  O38  O2-  0.319  0.681  0.884  1.000
  O38  O2-  0.319  0.881  0.084  1.000
  O38  O2-  0.319  0.881  0.284  1.000
  O38  O2-  0.319  0.881  0.484  1.000
  O38  O2-  0.319  0.881  0.684  1.000
  O38  O2-  0.319  0.881  0.884  1.000
  O38  O2-  0.519  0.081  0.084  1.000
  O38  O2-  0.519  0.081  0.284  1.000
  O38  O2-  0.519  0.081  0.484  1.000
  O38  O2-  0.519  0.081  0.684  1.000
  O38  O2-  0.519  0.081  0.884  1.000
  O38  O2-  0.519  0.281  0.084  1.000
  O38  O2-  0.519  0.281  0.284  1.000
  O38  O2-  0.519  0.281  0.484  1.000
  O38  O2-  0.519  0.281  0.684  1.000
  O38  O2-  0.519  0.281  0.884  1.000
  O38  O2-  0.519  0.481  0.084  1.000
  O38  O2-  0.519  0.481  0.284  1.000
  O38  O2-  0.519  0.481  0.484  1.000
  O38  O2-  0.519  0.481  0.684  1.000
  O38  O2-  0.519  0.481  0.884  1.000
  O38  O2-  0.519  0.681  0.084  1.000
  O38  O2-  0.519  0.681  0.284  1.000
  O38  O2-  0.519  0.681  0.484  1.000
  O38  O2-  0.519  0.681  0.684  1.000
  O38  O2-  0.519  0.681  0.884  1.000
  O38  O2-  0.519  0.881  0.084  1.000
  O38  O2-  0.519  0.881  0.284  1.000
  O38  O2-  0.519  0.881  0.484  1.000
  O38  O2-  0.519  0.881  0.684  1.000
  O38  O2-  0.519  0.881  0.884  1.000
  O38  O2-  0.719  0.081  0.084  1.000
  O38  O2-  0.719  0.081  0.284  1.000
  O38  O2-  0.719  0.081  0.484  1.000
  O38  O2-  0.719  0.081  0.684  1.000
  O38  O2-  0.719  0.081  0.884  1.000
  O38  O2-  0.719  0.281  0.084  1.000
  O38  O2-  0.719  0.281  0.284  1.000
  O38  O2-  0.719  0.281  0.484  1.000
  O38  O2-  0.719  0.281  0.684  1.000
  O38  O2-  0.719  0.281  0.884  1.000
  O38  O2-  0.719  0.481  0.084  1.000
  O38  O2-  0.719  0.481  0.284  1.000
  O38  O2-  0.719  0.481  0.484  1.000
  O38  O2-  0.719  0.481  0.684  1.000
  O38  O2-  0.719  0.481  0.884  1.000
  O38  O2-  0.719  0.681  0.084  1.000
  O38  O2-  0.719  0.681  0.284  1.000
  O38  O2-  0.719  0.681  0.484  1.000
  O38  O2-  0.719  0.681  0.684  1.000
  O38  O2-  0.719  0.681  0.884  1.000
  O38  O2-  0.719  0.881  0.084  1.000
  O38  O2-  0.719  0.881  0.284  1.000
  O38  O2-  0.719  0.881  0.484  1.000
  O38  O2-  0.719  0.881  0.684  1.000
  O38  O2-  0.719  0.881  0.884  1.000
  O38  O2-  0.919  0.081  0.084  1.000
  O38  O2-  0.919  0.081  0.284  1.000
  O38  O2-  0.919  0.081  0.484  1.000
  O38  O2-  0.919  0.081  0.684  1.000
  O38  O2-  0.919  0.081  0.884  1.000
  O38  O2-  0.919  0.281  0.084  1.000
  O38  O2-  0.919  0.281  0.284  1.000
  O38  O2-  0.919  0.281  0.484  1.000
  O38  O2-  0.919  0.281  0.684  1.000
  O38  O2-  0.919  0.281  0.884  1.000
  O38  O2-  0.919  0.481  0.084  1.000
  O38  O2-  0.919  0.481  0.284  1.000
  O38  O2-  0.919  0.481  0.484  1.000
  O38  O2-  0.919  0.481  0.684  1.000
  O38  O2-  0.919  0.481  0.884  1.000
  O38  O2-  0.919  0.681  0.084  1.000
  O38  O2-  0.919  0.681  0.284  1.000
  O38  O2-  0.919  0.681  0.484  1.000
  O38  O2-  0.919  0.681  0.684  1.000
  O38  O2-  0.919  0.681  0.884  1.000
  O38  O2-  0.919  0.881  0.084  1.000
  O38  O2-  0.919  0.881  0.284  1.000
  O38  O2-  0.919  0.881  0.484  1.000
  O38  O2-  0.919  0.881  0.684  1.000
  O38  O2-  0.919  0.881  0.884  1.000
  O39  O2-  0.119  0.119  0.116  1.000
  O39  O2-  0.119  0.119  0.316  1.000
  O39  O2-  0.119  0.119  0.516  1.000
  O39  O2-  0.119  0.119  0.716  1.000
  O39  O2-  0.119  0.119  0.916  1.000
  O39  O2-  0.119  0.319  0.116  1.000
  O39  O2-  0.119  0.319  0.316  1.000
  O39  O2-  0.119  0.319  0.516  1.000
  O39  O2-  0.119  0.319  0.716  1.000
  O39  O2-  0.119  0.319  0.916  1.000
  O39  O2-  0.119  0.519  0.116  1.000
  O39  O2-  0.119  0.519  0.316  1.000
  O39  O2-  0.119  0.519  0.516  1.000
  O39  O2-  0.119  0.519  0.716  1.000
  O39  O2-  0.119  0.519  0.916  1.000
  O39  O2-  0.119  0.719  0.116  1.000
  O39  O2-  0.119  0.719  0.316  1.000
  O39  O2-  0.119  0.719  0.516  1.000
  O39  O2-  0.119  0.719  0.716  1.000
  O39  O2-  0.119  0.719  0.916  1.000
  O39  O2-  0.119  0.919  0.116  1.000
  O39  O2-  0.119  0.919  0.316  1.000
  O39  O2-  0.119  0.919  0.516  1.000
  O39  O2-  0.119  0.919  0.716  1.000
  O39  O2-  0.119  0.919  0.916  1.000
  O39  O2-  0.319  0.119  0.116  1.000
  O39  O2-  0.319  0.119  0.316  1.000
  O39  O2-  0.319  0.119  0.516  1.000
  O39  O2-  0.319  0.119  0.716  1.000
  O39  O2-  0.319  0.119  0.916  1.000
  O39  O2-  0.319  0.319  0.116  1.000
  O39  O2-  0.319  0.319  0.316  1.000
  O39  O2-  0.319  0.319  0.516  1.000
  O39  O2-  0.319  0.319  0.716  1.000
  O39  O2-  0.319  0.319  0.916  1.000
  O39  O2-  0.319  0.519  0.116  1.000
  O39  O2-  0.319  0.519  0.316  1.000
  O39  O2-  0.319  0.519  0.516  1.000
  O39  O2-  0.319  0.519  0.716  1.000
  O39  O2-  0.319  0.519  0.916  1.000
  O39  O2-  0.319  0.719  0.116  1.000
  O39  O2-  0.319  0.719  0.316  1.000
  O39  O2-  0.319  0.719  0.516  1.000
  O39  O2-  0.319  0.719  0.716  1.000
  O39  O2-  0.319  0.719  0.916  1.000
  O39  O2-  0.319  0.919  0.116  1.000
  O39  O2-  0.319  0.919  0.316  1.000
  O39  O2-  0.319  0.919  0.516  1.000
  O39  O2-  0.319  0.919  0.716  1.000
  O39  O2-  0.319  0.919  0.916  1.000
  O39  O2-  0.519  0.119  0.116  1.000
  O39  O2-  0.519  0.119  0.316  1.000
  O39  O2-  0.519  0.119  0.516  1.000
  O39  O2-  0.519  0.119  0.716  1.000
  O39  O2-  0.519  0.119  0.916  1.000
  O39  O2-  0.519  0.319  0.116  1.000
  O39  O2-  0.519  0.319  0.316  1.000
  O39  O2-  0.519  0.319  0.516  1.000
  O39  O2-  0.519  0.319  0.716  1.000
  O39  O2-  0.519  0.319  0.916  1.000
  O39  O2-  0.519  0.519  0.116  1.000
  O39  O2-  0.519  0.519  0.316  1.000
  O39  O2-  0.519  0.519  0.516  1.000
  O39  O2-  0.519  0.519  0.716  1.000
  O39  O2-  0.519  0.519  0.916  1.000
  O39  O2-  0.519  0.719  0.116  1.000
  O39  O2-  0.519  0.719  0.316  1.000
  O39  O2-  0.519  0.719  0.516  1.000
  O39  O2-  0.519  0.719  0.716  1.000
  O39  O2-  0.519  0.719  0.916  1.000
  O39  O2-  0.519  0.919  0.116  1.000
  O39  O2-  0.519  0.919  0.316  1.000
  O39  O2-  0.519  0.919  0.516  1.000
  O39  O2-  0.519  0.919  0.716  1.000
  O39  O2-  0.519  0.919  0.916  1.000
  O39  O2-  0.719  0.119  0.116  1.000
  O39  O2-  0.719  0.119  0.316  1.000
  O39  O2-  0.719  0.119  0.516  1.000
  O39  O2-  0.719  0.119  0.716  1.000
  O39  O2-  0.719  0.119  0.916  1.000
  O39  O2-  0.719  0.319  0.116  1.000
  O39  O2-  0.719  0.319  0.316  1.000
  O39  O2-  0.719  0.319  0.516  1.000
  O39  O2-  0.719  0.319  0.716  1.000
  O39  O2-  0.719  0.319  0.916  1.000
  O39  O2-  0.719  0.519  0.116  1.000
  O39  O2-  0.719  0.519  0.316  1.000
  O39  O2-  0.719  0.519  0.516  1.000
  O39  O2-  0.719  0.519  0.716  1.000
  O39  O2-  0.719  0.519  0.916  1.000
  O39  O2-  0.719  0.719  0.116  1.000
  O39  O2-  0.719  0.719  0.316  1.000
  O39  O2-  0.719  0.719  0.516  1.000
  O39  O2-  0.719  0.719  0.716  1.000
  O39  O2-  0.719  0.719  0.916  1.000
  O39  O2-  0.719  0.919  0.116  1.000
  O39  O2-  0.719  0.919  0.316  1.000
  O39  O2-  0.719  0.919  0.516  1.000
  O39  O2-  0.719  0.919  0.716  1.000
  O39  O2-  0.719  0.919  0.916  1.000
  O39  O2-  0.919  0.119  0.116  1.000
  O39  O2-  0.919  0.119  0.316  1.000
  O39  O2-  0.919  0.119  0.516  1.000
  O39  O2-  0.919  0.119  0.716  1.000
  O39  O2-  0.919  0.119  0.916  1.000
  O39  O2-  0.919  0.319  0.116  1.000
  O39  O2-  0.919  0.319  0.316  1.000
  O39  O2-  0.919  0.319  0.516  1.000
  O39  O2-  0.919  0.319  0.716  1.000
  O39  O2-  0.919  0.319  0.916  1.000
  O39  O2-  0.919  0.519  0.116  1.000
  O39  O2-  0.919  0.519  0.316  1.000
  O39  O2-  0.919  0.519  0.516  1.000
  O39  O2-  0.919  0.519  0.716  1.000
  O39  O2-  0.919  0.519  0.916  1.000
  O39  O2-  0.919  0.719  0.116  1.000
  O39  O2-  0.919  0.719  0.316  1.000
  O39  O2-  0.919  0.719  0.516  1.000
  O39  O2-  0.919  0.719  0.716  1.000
  O39  O2-  0.919  0.719  0.916  1.000
  O39  O2-  0.919  0.919  0.116  1.000
  O39  O2-  0.919  0.919  0.316  1.000
  O39  O2-  0.919  0.919  0.516  1.000
  O39  O2-  0.919  0.919  0.716  1.000
  O39  O2-  0.919  0.919  0.916  1.000
  O40  O2-  0.117  0.098  0.163  1.000
  O40  O2-  0.117  0.098  0.363  1.000
  O40  O2-  0.117  0.098  0.563  1.000
  O40  O2-  0.117  0.098  0.763  1.000
  O40  O2-  0.117  0.098  0.963  1.000
  O40  O2-  0.117  0.298  0.163  1.000
  O40  O2-  0.117  0.298  0.363  1.000
  O40  O2-  0.117  0.298  0.563  1.000
  O40  O2-  0.117  0.298  0.763  1.000
  O40  O2-  0.117  0.298  0.963  1.000
  O40  O2-  0.117  0.498  0.163  1.000
  O40  O2-  0.117  0.498  0.363  1.000
  O40  O2-  0.117  0.498  0.563  1.000
  O40  O2-  0.117  0.498  0.763  1.000
  O40  O2-  0.117  0.498  0.963  1.000
  O40  O2-  0.117  0.698  0.163  1.000
  O40  O2-  0.117  0.698  0.363  1.000
  O40  O2-  0.117  0.698  0.563  1.000
  O40  O2-  0.117  0.698  0.763  1.000
  O40  O2-  0.117  0.698  0.963  1.000
  O40  O2-  0.117  0.898  0.163  1.000
  O40  O2-  0.117  0.898  0.363  1.000
  O40  O2-  0.117  0.898  0.563  1.000
  O40  O2-  0.117  0.898  0.763  1.000
  O40  O2-  0.117  0.898  0.963  1.000
  O40  O2-  0.317  0.098  0.163  1.000
  O40  O2-  0.317  0.098  0.363  1.000
  O40  O2-  0.317  0.098  0.563  1.000
  O40  O2-  0.317  0.098  0.763  1.000
  O40  O2-  0.317  0.098  0.963  1.000
  O40  O2-  0.317  0.298  0.163  1.000
  O40  O2-  0.317  0.298  0.363  1.000
  O40  O2-  0.317  0.298  0.563  1.000
  O40  O2-  0.317  0.298  0.763  1.000
  O40  O2-  0.317  0.298  0.963  1.000
  O40  O2-  0.317  0.498  0.163  1.000
  O40  O2-  0.317  0.498  0.363  1.000
  O40  O2-  0.317  0.498  0.563  1.000
  O40  O2-  0.317  0.498  0.763  1.000
  O40  O2-  0.317  0.498  0.963  1.000
  O40  O2-  0.317  0.698  0.163  1.000
  O40  O2-  0.317  0.698  0.363  1.000
  O40  O2-  0.317  0.698  0.563  1.000
  O40  O2-  0.317  0.698  0.763  1.000
  O40  O2-  0.317  0.698  0.963  1.000
  O40  O2-  0.317  0.898  0.163  1.000
  O40  O2-  0.317  0.898  0.363  1.000
  O40  O2-  0.317  0.898  0.563  1.000
  O40  O2-  0.317  0.898  0.763  1.000
  O40  O2-  0.317  0.898  0.963  1.000
  O40  O2-  0.517  0.098  0.163  1.000
  O40  O2-  0.517  0.098  0.363  1.000
  O40  O2-  0.517  0.098  0.563  1.000
  O40  O2-  0.517  0.098  0.763  1.000
  O40  O2-  0.517  0.098  0.963  1.000
  O40  O2-  0.517  0.298  0.163  1.000
  O40  O2-  0.517  0.298  0.363  1.000
  O40  O2-  0.517  0.298  0.563  1.000
  O40  O2-  0.517  0.298  0.763  1.000
  O40  O2-  0.517  0.298  0.963  1.000
  O40  O2-  0.517  0.498  0.163  1.000
  O40  O2-  0.517  0.498  0.363  1.000
  O40  O2-  0.517  0.498  0.563  1.000
  O40  O2-  0.517  0.498  0.763  1.000
  O40  O2-  0.517  0.498  0.963  1.000
  O40  O2-  0.517  0.698  0.163  1.000
  O40  O2-  0.517  0.698  0.363  1.000
  O40  O2-  0.517  0.698  0.563  1.000
  O40  O2-  0.517  0.698  0.763  1.000
  O40  O2-  0.517  0.698  0.963  1.000
  O40  O2-  0.517  0.898  0.163  1.000
  O40  O2-  0.517  0.898  0.363  1.000
  O40  O2-  0.517  0.898  0.563  1.000
  O40  O2-  0.517  0.898  0.763  1.000
  O40  O2-  0.517  0.898  0.963  1.000
  O40  O2-  0.717  0.098  0.163  1.000
  O40  O2-  0.717  0.098  0.363  1.000
  O40  O2-  0.717  0.098  0.563  1.000
  O40  O2-  0.717  0.098  0.763  1.000
  O40  O2-  0.717  0.098  0.963  1.000
  O40  O2-  0.717  0.298  0.163  1.000
  O40  O2-  0.717  0.298  0.363  1.000
  O40  O2-  0.717  0.298  0.563  1.000
  O40  O2-  0.717  0.298  0.763  1.000
  O40  O2-  0.717  0.298  0.963  1.000
  O40  O2-  0.717  0.498  0.163  1.000
  O40  O2-  0.717  0.498  0.363  1.000
  O40  O2-  0.717  0.498  0.563  1.000
  O40  O2-  0.717  0.498  0.763  1.000
  O40  O2-  0.717  0.498  0.963  1.000
  O40  O2-  0.717  0.698  0.163  1.000
  O40  O2-  0.717  0.698  0.363  1.000
  O40  O2-  0.717  0.698  0.563  1.000
  O40  O2-  0.717  0.698  0.763  1.000
  O40  O2-  0.717  0.698  0.963  1.000
  O40  O2-  0.717  0.898  0.163  1.000
  O40  O2-  0.717  0.898  0.363  1.000
  O40  O2-  0.717  0.898  0.563  1.000
  O40  O2-  0.717  0.898  0.763  1.000
  O40  O2-  0.717  0.898  0.963  1.000
  O40  O2-  0.917  0.098  0.163  1.000
  O40  O2-  0.917  0.098  0.363  1.000
  O40  O2-  0.917  0.098  0.563  1.000
  O40  O2-  0.917  0.098  0.763  1.000
  O40  O2-  0.917  0.098  0.963  1.000
  O40  O2-  0.917  0.298  0.163  1.000
  O40  O2-  0.917  0.298  0.363  1.000
  O40  O2-  0.917  0.298  0.563  1.000
  O40  O2-  0.917  0.298  0.763  1.000
  O40  O2-  0.917  0.298  0.963  1.000
  O40  O2-  0.917  0.498  0.163  1.000
  O40  O2-  0.917  0.498  0.363  1.000
  O40  O2-  0.917  0.498  0.563  1.000
  O40  O2-  0.917  0.498  0.763  1.000
  O40  O2-  0.917  0.498  0.963  1.000
  O40  O2-  0.917  0.698  0.163  1.000
  O40  O2-  0.917  0.698  0.363  1.000
  O40  O2-  0.917  0.698  0.563  1.000
  O40  O2-  0.917  0.698  0.763  1.000
  O40  O2-  0.917  0.698  0.963  1.000
  O40  O2-  0.917  0.898  0.163  1.000
  O40  O2-  0.917  0.898  0.363  1.000
  O40  O2-  0.917  0.898  0.563  1.000
  O40  O2-  0.917  0.898  0.763  1.000
  O40  O2-  0.917  0.898  0.963  1.000
  O41  O2-  0.117  0.102  0.037  1.000
  O41  O2-  0.117  0.102  0.237  1.000
  O41  O2-  0.117  0.102  0.437  1.000
  O41  O2-  0.117  0.102  0.637  1.000
  O41  O2-  0.117  0.102  0.837  1.000
  O41  O2-  0.117  0.302  0.037  1.000
  O41  O2-  0.117  0.302  0.237  1.000
  O41  O2-  0.117  0.302  0.437  1.000
  O41  O2-  0.117  0.302  0.637  1.000
  O41  O2-  0.117  0.302  0.837  1.000
  O41  O2-  0.117  0.502  0.037  1.000
  O41  O2-  0.117  0.502  0.237  1.000
  O41  O2-  0.117  0.502  0.437  1.000
  O41  O2-  0.117  0.502  0.637  1.000
  O41  O2-  0.117  0.502  0.837  1.000
  O41  O2-  0.117  0.702  0.037  1.000
  O41  O2-  0.117  0.702  0.237  1.000
  O41  O2-  0.117  0.702  0.437  1.000
  O41  O2-  0.117  0.702  0.637  1.000
  O41  O2-  0.117  0.702  0.837  1.000
  O41  O2-  0.117  0.902  0.037  1.000
  O41  O2-  0.117  0.902  0.237  1.000
  O41  O2-  0.117  0.902  0.437  1.000
  O41  O2-  0.117  0.902  0.637  1.000
  O41  O2-  0.117  0.902  0.837  1.000
  O41  O2-  0.317  0.102  0.037  1.000
  O41  O2-  0.317  0.102  0.237  1.000
  O41  O2-  0.317  0.102  0.437  1.000
  O41  O2-  0.317  0.102  0.637  1.000
  O41  O2-  0.317  0.102  0.837  1.000
  O41  O2-  0.317  0.302  0.037  1.000
  O41  O2-  0.317  0.302  0.237  1.000
  O41  O2-  0.317  0.302  0.437  1.000
  O41  O2-  0.317  0.302  0.637  1.000
  O41  O2-  0.317  0.302  0.837  1.000
  O41  O2-  0.317  0.502  0.037  1.000
  O41  O2-  0.317  0.502  0.237  1.000
  O41  O2-  0.317  0.502  0.437  1.000
  O41  O2-  0.317  0.502  0.637  1.000
  O41  O2-  0.317  0.502  0.837  1.000
  O41  O2-  0.317  0.702  0.037  1.000
  O41  O2-  0.317  0.702  0.237  1.000
  O41  O2-  0.317  0.702  0.437  1.000
  O41  O2-  0.317  0.702  0.637  1.000
  O41  O2-  0.317  0.702  0.837  1.000
  O41  O2-  0.317  0.902  0.037  1.000
  O41  O2-  0.317  0.902  0.237  1.000
  O41  O2-  0.317  0.902  0.437  1.000
  O41  O2-  0.317  0.902  0.637  1.000
  O41  O2-  0.317  0.902  0.837  1.000
  O41  O2-  0.517  0.102  0.037  1.000
  O41  O2-  0.517  0.102  0.237  1.000
  O41  O2-  0.517  0.102  0.437  1.000
  O41  O2-  0.517  0.102  0.637  1.000
  O41  O2-  0.517  0.102  0.837  1.000
  O41  O2-  0.517  0.302  0.037  1.000
  O41  O2-  0.517  0.302  0.237  1.000
  O41  O2-  0.517  0.302  0.437  1.000
  O41  O2-  0.517  0.302  0.637  1.000
  O41  O2-  0.517  0.302  0.837  1.000
  O41  O2-  0.517  0.502  0.037  1.000
  O41  O2-  0.517  0.502  0.237  1.000
  O41  O2-  0.517  0.502  0.437  1.000
  O41  O2-  0.517  0.502  0.637  1.000
  O41  O2-  0.517  0.502  0.837  1.000
  O41  O2-  0.517  0.702  0.037  1.000
  O41  O2-  0.517  0.702  0.237  1.000
  O41  O2-  0.517  0.702  0.437  1.000
  O41  O2-  0.517  0.702  0.637  1.000
  O41  O2-  0.517  0.702  0.837  1.000
  O41  O2-  0.517  0.902  0.037  1.000
  O41  O2-  0.517  0.902  0.237  1.000
  O41  O2-  0.517  0.902  0.437  1.000
  O41  O2-  0.517  0.902  0.637  1.000
  O41  O2-  0.517  0.902  0.837  1.000
  O41  O2-  0.717  0.102  0.037  1.000
  O41  O2-  0.717  0.102  0.237  1.000
  O41  O2-  0.717  0.102  0.437  1.000
  O41  O2-  0.717  0.102  0.637  1.000
  O41  O2-  0.717  0.102  0.837  1.000
  O41  O2-  0.717  0.302  0.037  1.000
  O41  O2-  0.717  0.302  0.237  1.000
  O41  O2-  0.717  0.302  0.437  1.000
  O41  O2-  0.717  0.302  0.637  1.000
  O41  O2-  0.717  0.302  0.837  1.000
  O41  O2-  0.717  0.502  0.037  1.000
  O41  O2-  0.717  0.502  0.237  1.000
  O41  O2-  0.717  0.502  0.437  1.000
  O41  O2-  0.717  0.502  0.637  1.000
  O41  O2-  0.717  0.502  0.837  1.000
  O41  O2-  0.717  0.702  0.037  1.000
  O41  O2-  0.717  0.702  0.237  1.000
  O41  O2-  0.717  0.702  0.437  1.000
  O41  O2-  0.717  0.702  0.637  1.000
  O41  O2-  0.717  0.702  0.837  1.000
  O41  O2-  0.717  0.902  0.037  1.000
  O41  O2-  0.717  0.902  0.237  1.000
  O41  O2-  0.717  0.902  0.437  1.000
  O41  O2-  0.717  0.902  0.637  1.000
  O41  O2-  0.717  0.902  0.837  1.000
  O41  O2-  0.917  0.102  0.037  1.000
  O41  O2-  0.917  0.102  0.237  1.000
  O41  O2-  0.917  0.102  0.437  1.000
  O41  O2-  0.917  0.102  0.637  1.000
  O41  O2-  0.917  0.102  0.837  1.000
  O41  O2-  0.917  0.302  0.037  1.000
  O41  O2-  0.917  0.302  0.237  1.000
  O41  O2-  0.917  0.302  0.437  1.000
  O41  O2-  0.917  0.302  0.637  1.000
  O41  O2-  0.917  0.302  0.837  1.000
  O41  O2-  0.917  0.502  0.037  1.000
  O41  O2-  0.917  0.502  0.237  1.000
  O41  O2-  0.917  0.502  0.437  1.000
  O41  O2-  0.917  0.502  0.637  1.000
  O41  O2-  0.917  0.502  0.837  1.000
  O41  O2-  0.917  0.702  0.037  1.000
  O41  O2-  0.917  0.702  0.237  1.000
  O41  O2-  0.917  0.702  0.437  1.000
  O41  O2-  0.917  0.702  0.637  1.000
  O41  O2-  0.917  0.702  0.837  1.000
  O41  O2-  0.917  0.902  0.037  1.000
  O41  O2-  0.917  0.902  0.237  1.000
  O41  O2-  0.917  0.902  0.437  1.000
  O41  O2-  0.917  0.902  0.637  1.000
  O41  O2-  0.917  0.902  0.837  1.000
  O42  O2-  0.116  0.155  0.155  1.000
  O42  O2-  0.116  0.155  0.355  1.000
  O42  O2-  0.116  0.155  0.555  1.000
  O42  O2-  0.116  0.155  0.755  1.000
  O42  O2-  0.116  0.155  0.955  1.000
  O42  O2-  0.116  0.355  0.155  1.000
  O42  O2-  0.116  0.355  0.355  1.000
  O42  O2-  0.116  0.355  0.555  1.000
  O42  O2-  0.116  0.355  0.755  1.000
  O42  O2-  0.116  0.355  0.955  1.000
  O42  O2-  0.116  0.555  0.155  1.000
  O42  O2-  0.116  0.555  0.355  1.000
  O42  O2-  0.116  0.555  0.555  1.000
  O42  O2-  0.116  0.555  0.755  1.000
  O42  O2-  0.116  0.555  0.955  1.000
  O42  O2-  0.116  0.755  0.155  1.000
  O42  O2-  0.116  0.755  0.355  1.000
  O42  O2-  0.116  0.755  0.555  1.000
  O42  O2-  0.116  0.755  0.755  1.000
  O42  O2-  0.116  0.755  0.955  1.000
  O42  O2-  0.116  0.955  0.155  1.000
  O42  O2-  0.116  0.955  0.355  1.000
  O42  O2-  0.116  0.955  0.555  1.000
  O42  O2-  0.116  0.955  0.755  1.000
  O42  O2-  0.116  0.955  0.955  1.000
  O42  O2-  0.316  0.155  0.155  1.000
  O42  O2-  0.316  0.155  0.355  1.000
  O42  O2-  0.316  0.155  0.555  1.000
  O42  O2-  0.316  0.155  0.755  1.000
  O42  O2-  0.316  0.155  0.955  1.000
  O42  O2-  0.316  0.355  0.155  1.000
  O42  O2-  0.316  0.355  0.355  1.000
  O42  O2-  0.316  0.355  0.555  1.000
  O42  O2-  0.316  0.355  0.755  1.000
  O42  O2-  0.316  0.355  0.955  1.000
  O42  O2-  0.316  0.555  0.155  1.000
  O42  O2-  0.316  0.555  0.355  1.000
  O42  O2-  0.316  0.555  0.555  1.000
  O42  O2-  0.316  0.555  0.755  1.000
  O42  O2-  0.316  0.555  0.955  1.000
  O42  O2-  0.316  0.755  0.155  1.000
  O42  O2-  0.316  0.755  0.355  1.000
  O42  O2-  0.316  0.755  0.555  1.000
  O42  O2-  0.316  0.755  0.755  1.000
  O42  O2-  0.316  0.755  0.955  1.000
  O42  O2-  0.316  0.955  0.155  1.000
  O42  O2-  0.316  0.955  0.355  1.000
  O42  O2-  0.316  0.955  0.555  1.000
  O42  O2-  0.316  0.955  0.755  1.000
  O42  O2-  0.316  0.955  0.955  1.000
  O42  O2-  0.516  0.155  0.155  1.000
  O42  O2-  0.516  0.155  0.355  1.000
  O42  O2-  0.516  0.155  0.555  1.000
  O42  O2-  0.516  0.155  0.755  1.000
  O42  O2-  0.516  0.155  0.955  1.000
  O42  O2-  0.516  0.355  0.155  1.000
  O42  O2-  0.516  0.355  0.355  1.000
  O42  O2-  0.516  0.355  0.555  1.000
  O42  O2-  0.516  0.355  0.755  1.000
  O42  O2-  0.516  0.355  0.955  1.000
  O42  O2-  0.516  0.555  0.155  1.000
  O42  O2-  0.516  0.555  0.355  1.000
  O42  O2-  0.516  0.555  0.555  1.000
  O42  O2-  0.516  0.555  0.755  1.000
  O42  O2-  0.516  0.555  0.955  1.000
  O42  O2-  0.516  0.755  0.155  1.000
  O42  O2-  0.516  0.755  0.355  1.000
  O42  O2-  0.516  0.755  0.555  1.000
  O42  O2-  0.516  0.755  0.755  1.000
  O42  O2-  0.516  0.755  0.955  1.000
  O42  O2-  0.516  0.955  0.155  1.000
  O42  O2-  0.516  0.955  0.355  1.000
  O42  O2-  0.516  0.955  0.555  1.000
  O42  O2-  0.516  0.955  0.755  1.000
  O42  O2-  0.516  0.955  0.955  1.000
  O42  O2-  0.716  0.155  0.155  1.000
  O42  O2-  0.716  0.155  0.355  1.000
  O42  O2-  0.716  0.155  0.555  1.000
  O42  O2-  0.716  0.155  0.755  1.000
  O42  O2-  0.716  0.155  0.955  1.000
  O42  O2-  0.716  0.355  0.155  1.000
  O42  O2-  0.716  0.355  0.355  1.000
  O42  O2-  0.716  0.355  0.555  1.000
  O42  O2-  0.716  0.355  0.755  1.000
  O42  O2-  0.716  0.355  0.955  1.000
  O42  O2-  0.716  0.555  0.155  1.000
  O42  O2-  0.716  0.555  0.355  1.000
  O42  O2-  0.716  0.555  0.555  1.000
  O42  O2-  0.716  0.555  0.755  1.000
  O42  O2-  0.716  0.555  0.955  1.000
  O42  O2-  0.716  0.755  0.155  1.000
  O42  O2-  0.716  0.755  0.355  1.000
  O42  O2-  0.716  0.755  0.555  1.000
  O42  O2-  0.716  0.755  0.755  1.000
  O42  O2-  0.716  0.755  0.955  1.000
  O42  O2-  0.716  0.955  0.155  1.000
  O42  O2-  0.716  0.955  0.355  1.000
  O42  O2-  0.716  0.955  0.555  1.000
  O42  O2-  0.716  0.955  0.755  1.000
  O42  O2-  0.716  0.955  0.955  1.000
  O42  O2-  0.916  0.155  0.155  1.000
  O42  O2-  0.916  0.155  0.355  1.000
  O42  O2-  0.916  0.155  0.555  1.000
  O42  O2-  0.916  0.155  0.755  1.000
  O42  O2-  0.916  0.155  0.955  1.000
  O42  O2-  0.916  0.355  0.155  1.000
  O42  O2-  0.916  0.355  0.355  1.000
  O42  O2-  0.916  0.355  0.555  1.000
  O42  O2-  0.916  0.355  0.755  1.000
  O42  O2-  0.916  0.355  0.955  1.000
  O42  O2-  0.916  0.555  0.155  1.000
  O42  O2-  0.916  0.555  0.355  1.000
  O42  O2-  0.916  0.555  0.555  1.000
  O42  O2-  0.916  0.555  0.755  1.000
  O42  O2-  0.916  0.555  0.955  1.000
  O42  O2-  0.916  0.755  0.155  1.000
  O42  O2-  0.916  0.755  0.355  1.000
  O42  O2-  0.916  0.755  0.555  1.000
  O42  O2-  0.916  0.755  0.755  1.000
  O42  O2-  0.916  0.755  0.955  1.000
  O42  O2-  0.916  0.955  0.155  1.000
  O42  O2-  0.916  0.955  0.355  1.000
  O42  O2-  0.916  0.955  0.555  1.000
  O42  O2-  0.916  0.955  0.755  1.000
  O42  O2-  0.916  0.955  0.955  1.000
  O43  O2-  0.116  0.045  0.045  1.000
  O43  O2-  0.116  0.045  0.245  1.000
  O43  O2-  0.116  0.045  0.445  1.000
  O43  O2-  0.116  0.045  0.645  1.000
  O43  O2-  0.116  0.045  0.845  1.000
  O43  O2-  0.116  0.245  0.045  1.000
  O43  O2-  0.116  0.245  0.245  1.000
  O43  O2-  0.116  0.245  0.445  1.000
  O43  O2-  0.116  0.245  0.645  1.000
  O43  O2-  0.116  0.245  0.845  1.000
  O43  O2-  0.116  0.445  0.045  1.000
  O43  O2-  0.116  0.445  0.245  1.000
  O43  O2-  0.116  0.445  0.445  1.000
  O43  O2-  0.116  0.445  0.645  1.000
  O43  O2-  0.116  0.445  0.845  1.000
  O43  O2-  0.116  0.645  0.045  1.000
  O43  O2-  0.116  0.645  0.245  1.000
  O43  O2-  0.116  0.645  0.445  1.000
  O43  O2-  0.116  0.645  0.645  1.000
  O43  O2-  0.116  0.645  0.845  1.000
  O43  O2-  0.116  0.845  0.045  1.000
  O43  O2-  0.116  0.845  0.245  1.000
  O43  O2-  0.116  0.845  0.445  1.000
  O43  O2-  0.116  0.845  0.645  1.000
  O43  O2-  0.116  0.845  0.845  1.000
  O43  O2-  0.316  0.045  0.045  1.000
  O43  O2-  0.316  0.045  0.245  1.000
  O43  O2-  0.316  0.045  0.445  1.000
  O43  O2-  0.316  0.045  0.645  1.000
  O43  O2-  0.316  0.045  0.845  1.000
  O43  O2-  0.316  0.245  0.045  1.000
  O43  O2-  0.316  0.245  0.245  1.000
  O43  O2-  0.316  0.245  0.445  1.000
  O43  O2-  0.316  0.245  0.645  1.000
  O43  O2-  0.316  0.245  0.845  1.000
  O43  O2-  0.316  0.445  0.045  1.000
  O43  O2-  0.316  0.445  0.245  1.000
  O43  O2-  0.316  0.445  0.445  1.000
  O43  O2-  0.316  0.445  0.645  1.000
  O43  O2-  0.316  0.445  0.845  1.000
  O43  O2-  0.316  0.645  0.045  1.000
  O43  O2-  0.316  0.645  0.245  1.000
  O43  O2-  0.316  0.645  0.445  1.000
  O43  O2-  0.316  0.645  0.645  1.000
  O43  O2-  0.316  0.645  0.845  1.000
  O43  O2-  0.316  0.845  0.045  1.000
  O43  O2-  0.316  0.845  0.245  1.000
  O43  O2-  0.316  0.845  0.445  1.000
  O43  O2-  0.316  0.845  0.645  1.000
  O43  O2-  0.316  0.845  0.845  1.000
  O43  O2-  0.516  0.045  0.045  1.000
  O43  O2-  0.516  0.045  0.245  1.000
  O43  O2-  0.516  0.045  0.445  1.000
  O43  O2-  0.516  0.045  0.645  1.000
  O43  O2-  0.516  0.045  0.845  1.000
  O43  O2-  0.516  0.245  0.045  1.000
  O43  O2-  0.516  0.245  0.245  1.000
  O43  O2-  0.516  0.245  0.445  1.000
  O43  O2-  0.516  0.245  0.645  1.000
  O43  O2-  0.516  0.245  0.845  1.000
  O43  O2-  0.516  0.445  0.045  1.000
  O43  O2-  0.516  0.445  0.245  1.000
  O43  O2-  0.516  0.445  0.445  1.000
  O43  O2-  0.516  0.445  0.645  1.000
  O43  O2-  0.516  0.445  0.845  1.000
  O43  O2-  0.516  0.645  0.045  1.000
  O43  O2-  0.516  0.645  0.245  1.000
  O43  O2-  0.516  0.645  0.445  1.000
  O43  O2-  0.516  0.645  0.645  1.000
  O43  O2-  0.516  0.645  0.845  1.000
  O43  O2-  0.516  0.845  0.045  1.000
  O43  O2-  0.516  0.845  0.245  1.000
  O43  O2-  0.516  0.845  0.445  1.000
  O43  O2-  0.516  0.845  0.645  1.000
  O43  O2-  0.516  0.845  0.845  1.000
  O43  O2-  0.716  0.045  0.045  1.000
  O43  O2-  0.716  0.045  0.245  1.000
  O43  O2-  0.716  0.045  0.445  1.000
  O43  O2-  0.716  0.045  0.645  1.000
  O43  O2-  0.716  0.045  0.845  1.000
  O43  O2-  0.716  0.245  0.045  1.000
  O43  O2-  0.716  0.245  0.245  1.000
  O43  O2-  0.716  0.245  0.445  1.000
  O43  O2-  0.716  0.245  0.645  1.000
  O43  O2-  0.716  0.245  0.845  1.000
  O43  O2-  0.716  0.445  0.045  1.000
  O43  O2-  0.716  0.445  0.245  1.000
  O43  O2-  0.716  0.445  0.445  1.000
  O43  O2-  0.716  0.445  0.645  1.000
  O43  O2-  0.716  0.445  0.845  1.000
  O43  O2-  0.716  0.645  0.045  1.000
  O43  O2-  0.716  0.645  0.245  1.000
  O43  O2-  0.716  0.645  0.445  1.000
  O43  O2-  0.716  0.645  0.645  1.000
  O43  O2-  0.716  0.645  0.845  1.000
  O43  O2-  0.716  0.845  0.045  1.000
  O43  O2-  0.716  0.845  0.245  1.000
  O43  O2-  0.716  0.845  0.445  1.000
  O43  O2-  0.716  0.845  0.645  1.000
  O43  O2-  0.716  0.845  0.845  1.000
  O43  O2-  0.916  0.045  0.045  1.000
  O43  O2-  0.916  0.045  0.245  1.000
  O43  O2-  0.916  0.045  0.445  1.000
  O43  O2-  0.916  0.045  0.645  1.000
  O43  O2-  0.916  0.045  0.845  1.000
  O43  O2-  0.916  0.245  0.045  1.000
  O43  O2-  0.916  0.245  0.245  1.000
  O43  O2-  0.916  0.245  0.445  1.000
  O43  O2-  0.916  0.245  0.645  1.000
  O43  O2-  0.916  0.245  0.845  1.000
  O43  O2-  0.916  0.445  0.045  1.000
  O43  O2-  0.916  0.445  0.245  1.000
  O43  O2-  0.916  0.445  0.445  1.000
  O43  O2-  0.916  0.445  0.645  1.000
  O43  O2-  0.916  0.445  0.845  1.000
  O43  O2-  0.916  0.645  0.045  1.000
  O43  O2-  0.916  0.645  0.245  1.000
  O43  O2-  0.916  0.645  0.445  1.000
  O43  O2-  0.916  0.645  0.645  1.000
  O43  O2-  0.916  0.645  0.845  1.000
  O43  O2-  0.916  0.845  0.045  1.000
  O43  O2-  0.916  0.845  0.245  1.000
  O43  O2-  0.916  0.845  0.445  1.000
  O43  O2-  0.916  0.845  0.645  1.000
  O43  O2-  0.916  0.845  0.845  1.000
  O44  O2-  0.084  0.055  0.145  1.000
  O44  O2-  0.084  0.055  0.345  1.000
  O44  O2-  0.084  0.055  0.545  1.000
  O44  O2-  0.084  0.055  0.745  1.000
  O44  O2-  0.084  0.055  0.945  1.000
  O44  O2-  0.084  0.255  0.145  1.000
  O44  O2-  0.084  0.255  0.345  1.000
  O44  O2-  0.084  0.255  0.545  1.000
  O44  O2-  0.084  0.255  0.745  1.000
  O44  O2-  0.084  0.255  0.945  1.000
  O44  O2-  0.084  0.455  0.145  1.000
  O44  O2-  0.084  0.455  0.345  1.000
  O44  O2-  0.084  0.455  0.545  1.000
  O44  O2-  0.084  0.455  0.745  1.000
  O44  O2-  0.084  0.455  0.945  1.000
  O44  O2-  0.084  0.655  0.145  1.000
  O44  O2-  0.084  0.655  0.345  1.000
  O44  O2-  0.084  0.655  0.545  1.000
  O44  O2-  0.084  0.655  0.745  1.000
  O44  O2-  0.084  0.655  0.945  1.000
  O44  O2-  0.084  0.855  0.145  1.000
  O44  O2-  0.084  0.855  0.345  1.000
  O44  O2-  0.084  0.855  0.545  1.000
  O44  O2-  0.084  0.855  0.745  1.000
  O44  O2-  0.084  0.855  0.945  1.000
  O44  O2-  0.284  0.055  0.145  1.000
  O44  O2-  0.284  0.055  0.345  1.000
  O44  O2-  0.284  0.055  0.545  1.000
  O44  O2-  0.284  0.055  0.745  1.000
  O44  O2-  0.284  0.055  0.945  1.000
  O44  O2-  0.284  0.255  0.145  1.000
  O44  O2-  0.284  0.255  0.345  1.000
  O44  O2-  0.284  0.255  0.545  1.000
  O44  O2-  0.284  0.255  0.745  1.000
  O44  O2-  0.284  0.255  0.945  1.000
  O44  O2-  0.284  0.455  0.145  1.000
  O44  O2-  0.284  0.455  0.345  1.000
  O44  O2-  0.284  0.455  0.545  1.000
  O44  O2-  0.284  0.455  0.745  1.000
  O44  O2-  0.284  0.455  0.945  1.000
  O44  O2-  0.284  0.655  0.145  1.000
  O44  O2-  0.284  0.655  0.345  1.000
  O44  O2-  0.284  0.655  0.545  1.000
  O44  O2-  0.284  0.655  0.745  1.000
  O44  O2-  0.284  0.655  0.945  1.000
  O44  O2-  0.284  0.855  0.145  1.000
  O44  O2-  0.284  0.855  0.345  1.000
  O44  O2-  0.284  0.855  0.545  1.000
  O44  O2-  0.284  0.855  0.745  1.000
  O44  O2-  0.284  0.855  0.945  1.000
  O44  O2-  0.484  0.055  0.145  1.000
  O44  O2-  0.484  0.055  0.345  1.000
  O44  O2-  0.484  0.055  0.545  1.000
  O44  O2-  0.484  0.055  0.745  1.000
  O44  O2-  0.484  0.055  0.945  1.000
  O44  O2-  0.484  0.255  0.145  1.000
  O44  O2-  0.484  0.255  0.345  1.000
  O44  O2-  0.484  0.255  0.545  1.000
  O44  O2-  0.484  0.255  0.745  1.000
  O44  O2-  0.484  0.255  0.945  1.000
  O44  O2-  0.484  0.455  0.145  1.000
  O44  O2-  0.484  0.455  0.345  1.000
  O44  O2-  0.484  0.455  0.545  1.000
  O44  O2-  0.484  0.455  0.745  1.000
  O44  O2-  0.484  0.455  0.945  1.000
  O44  O2-  0.484  0.655  0.145  1.000
  O44  O2-  0.484  0.655  0.345  1.000
  O44  O2-  0.484  0.655  0.545  1.000
  O44  O2-  0.484  0.655  0.745  1.000
  O44  O2-  0.484  0.655  0.945  1.000
  O44  O2-  0.484  0.855  0.145  1.000
  O44  O2-  0.484  0.855  0.345  1.000
  O44  O2-  0.484  0.855  0.545  1.000
  O44  O2-  0.484  0.855  0.745  1.000
  O44  O2-  0.484  0.855  0.945  1.000
  O44  O2-  0.684  0.055  0.145  1.000
  O44  O2-  0.684  0.055  0.345  1.000
  O44  O2-  0.684  0.055  0.545  1.000
  O44  O2-  0.684  0.055  0.745  1.000
  O44  O2-  0.684  0.055  0.945  1.000
  O44  O2-  0.684  0.255  0.145  1.000
  O44  O2-  0.684  0.255  0.345  1.000
  O44  O2-  0.684  0.255  0.545  1.000
  O44  O2-  0.684  0.255  0.745  1.000
  O44  O2-  0.684  0.255  0.945  1.000
  O44  O2-  0.684  0.455  0.145  1.000
  O44  O2-  0.684  0.455  0.345  1.000
  O44  O2-  0.684  0.455  0.545  1.000
  O44  O2-  0.684  0.455  0.745  1.000
  O44  O2-  0.684  0.455  0.945  1.000
  O44  O2-  0.684  0.655  0.145  1.000
  O44  O2-  0.684  0.655  0.345  1.000
  O44  O2-  0.684  0.655  0.545  1.000
  O44  O2-  0.684  0.655  0.745  1.000
  O44  O2-  0.684  0.655  0.945  1.000
  O44  O2-  0.684  0.855  0.145  1.000
  O44  O2-  0.684  0.855  0.345  1.000
  O44  O2-  0.684  0.855  0.545  1.000
  O44  O2-  0.684  0.855  0.745  1.000
  O44  O2-  0.684  0.855  0.945  1.000
  O44  O2-  0.884  0.055  0.145  1.000
  O44  O2-  0.884  0.055  0.345  1.000
  O44  O2-  0.884  0.055  0.545  1.000
  O44  O2-  0.884  0.055  0.745  1.000
  O44  O2-  0.884  0.055  0.945  1.000
  O44  O2-  0.884  0.255  0.145  1.000
  O44  O2-  0.884  0.255  0.345  1.000
  O44  O2-  0.884  0.255  0.545  1.000
  O44  O2-  0.884  0.255  0.745  1.000
  O44  O2-  0.884  0.255  0.945  1.000
  O44  O2-  0.884  0.455  0.145  1.000
  O44  O2-  0.884  0.455  0.345  1.000
  O44  O2-  0.884  0.455  0.545  1.000
  O44  O2-  0.884  0.455  0.745  1.000
  O44  O2-  0.884  0.455  0.945  1.000
  O44  O2-  0.884  0.655  0.145  1.000
  O44  O2-  0.884  0.655  0.345  1.000
  O44  O2-  0.884  0.655  0.545  1.000
  O44  O2-  0.884  0.655  0.745  1.000
  O44  O2-  0.884  0.655  0.945  1.000
  O44  O2-  0.884  0.855  0.145  1.000
  O44  O2-  0.884  0.855  0.345  1.000
  O44  O2-  0.884  0.855  0.545  1.000
  O44  O2-  0.884  0.855  0.745  1.000
  O44  O2-  0.884  0.855  0.945  1.000
  O45  O2-  0.084  0.145  0.055  1.000
  O45  O2-  0.084  0.145  0.255  1.000
  O45  O2-  0.084  0.145  0.455  1.000
  O45  O2-  0.084  0.145  0.655  1.000
  O45  O2-  0.084  0.145  0.855  1.000
  O45  O2-  0.084  0.345  0.055  1.000
  O45  O2-  0.084  0.345  0.255  1.000
  O45  O2-  0.084  0.345  0.455  1.000
  O45  O2-  0.084  0.345  0.655  1.000
  O45  O2-  0.084  0.345  0.855  1.000
  O45  O2-  0.084  0.545  0.055  1.000
  O45  O2-  0.084  0.545  0.255  1.000
  O45  O2-  0.084  0.545  0.455  1.000
  O45  O2-  0.084  0.545  0.655  1.000
  O45  O2-  0.084  0.545  0.855  1.000
  O45  O2-  0.084  0.745  0.055  1.000
  O45  O2-  0.084  0.745  0.255  1.000
  O45  O2-  0.084  0.745  0.455  1.000
  O45  O2-  0.084  0.745  0.655  1.000
  O45  O2-  0.084  0.745  0.855  1.000
  O45  O2-  0.084  0.945  0.055  1.000
  O45  O2-  0.084  0.945  0.255  1.000
  O45  O2-  0.084  0.945  0.455  1.000
  O45  O2-  0.084  0.945  0.655  1.000
  O45  O2-  0.084  0.945  0.855  1.000
  O45  O2-  0.284  0.145  0.055  1.000
  O45  O2-  0.284  0.145  0.255  1.000
  O45  O2-  0.284  0.145  0.455  1.000
  O45  O2-  0.284  0.145  0.655  1.000
  O45  O2-  0.284  0.145  0.855  1.000
  O45  O2-  0.284  0.345  0.055  1.000
  O45  O2-  0.284  0.345  0.255  1.000
  O45  O2-  0.284  0.345  0.455  1.000
  O45  O2-  0.284  0.345  0.655  1.000
  O45  O2-  0.284  0.345  0.855  1.000
  O45  O2-  0.284  0.545  0.055  1.000
  O45  O2-  0.284  0.545  0.255  1.000
  O45  O2-  0.284  0.545  0.455  1.000
  O45  O2-  0.284  0.545  0.655  1.000
  O45  O2-  0.284  0.545  0.855  1.000
  O45  O2-  0.284  0.745  0.055  1.000
  O45  O2-  0.284  0.745  0.255  1.000
  O45  O2-  0.284  0.745  0.455  1.000
  O45  O2-  0.284  0.745  0.655  1.000
  O45  O2-  0.284  0.745  0.855  1.000
  O45  O2-  0.284  0.945  0.055  1.000
  O45  O2-  0.284  0.945  0.255  1.000
  O45  O2-  0.284  0.945  0.455  1.000
  O45  O2-  0.284  0.945  0.655  1.000
  O45  O2-  0.284  0.945  0.855  1.000
  O45  O2-  0.484  0.145  0.055  1.000
  O45  O2-  0.484  0.145  0.255  1.000
  O45  O2-  0.484  0.145  0.455  1.000
  O45  O2-  0.484  0.145  0.655  1.000
  O45  O2-  0.484  0.145  0.855  1.000
  O45  O2-  0.484  0.345  0.055  1.000
  O45  O2-  0.484  0.345  0.255  1.000
  O45  O2-  0.484  0.345  0.455  1.000
  O45  O2-  0.484  0.345  0.655  1.000
  O45  O2-  0.484  0.345  0.855  1.000
  O45  O2-  0.484  0.545  0.055  1.000
  O45  O2-  0.484  0.545  0.255  1.000
  O45  O2-  0.484  0.545  0.455  1.000
  O45  O2-  0.484  0.545  0.655  1.000
  O45  O2-  0.484  0.545  0.855  1.000
  O45  O2-  0.484  0.745  0.055  1.000
  O45  O2-  0.484  0.745  0.255  1.000
  O45  O2-  0.484  0.745  0.455  1.000
  O45  O2-  0.484  0.745  0.655  1.000
  O45  O2-  0.484  0.745  0.855  1.000
  O45  O2-  0.484  0.945  0.055  1.000
  O45  O2-  0.484  0.945  0.255  1.000
  O45  O2-  0.484  0.945  0.455  1.000
  O45  O2-  0.484  0.945  0.655  1.000
  O45  O2-  0.484  0.945  0.855  1.000
  O45  O2-  0.684  0.145  0.055  1.000
  O45  O2-  0.684  0.145  0.255  1.000
  O45  O2-  0.684  0.145  0.455  1.000
  O45  O2-  0.684  0.145  0.655  1.000
  O45  O2-  0.684  0.145  0.855  1.000
  O45  O2-  0.684  0.345  0.055  1.000
  O45  O2-  0.684  0.345  0.255  1.000
  O45  O2-  0.684  0.345  0.455  1.000
  O45  O2-  0.684  0.345  0.655  1.000
  O45  O2-  0.684  0.345  0.855  1.000
  O45  O2-  0.684  0.545  0.055  1.000
  O45  O2-  0.684  0.545  0.255  1.000
  O45  O2-  0.684  0.545  0.455  1.000
  O45  O2-  0.684  0.545  0.655  1.000
  O45  O2-  0.684  0.545  0.855  1.000
  O45  O2-  0.684  0.745  0.055  1.000
  O45  O2-  0.684  0.745  0.255  1.000
  O45  O2-  0.684  0.745  0.455  1.000
  O45  O2-  0.684  0.745  0.655  1.000
  O45  O2-  0.684  0.745  0.855  1.000
  O45  O2-  0.684  0.945  0.055  1.000
  O45  O2-  0.684  0.945  0.255  1.000
  O45  O2-  0.684  0.945  0.455  1.000
  O45  O2-  0.684  0.945  0.655  1.000
  O45  O2-  0.684  0.945  0.855  1.000
  O45  O2-  0.884  0.145  0.055  1.000
  O45  O2-  0.884  0.145  0.255  1.000
  O45  O2-  0.884  0.145  0.455  1.000
  O45  O2-  0.884  0.145  0.655  1.000
  O45  O2-  0.884  0.145  0.855  1.000
  O45  O2-  0.884  0.345  0.055  1.000
  O45  O2-  0.884  0.345  0.255  1.000
  O45  O2-  0.884  0.345  0.455  1.000
  O45  O2-  0.884  0.345  0.655  1.000
  O45  O2-  0.884  0.345  0.855  1.000
  O45  O2-  0.884  0.545  0.055  1.000
  O45  O2-  0.884  0.545  0.255  1.000
  O45  O2-  0.884  0.545  0.455  1.000
  O45  O2-  0.884  0.545  0.655  1.000
  O45  O2-  0.884  0.545  0.855  1.000
  O45  O2-  0.884  0.745  0.055  1.000
  O45  O2-  0.884  0.745  0.255  1.000
  O45  O2-  0.884  0.745  0.455  1.000
  O45  O2-  0.884  0.745  0.655  1.000
  O45  O2-  0.884  0.745  0.855  1.000
  O45  O2-  0.884  0.945  0.055  1.000
  O45  O2-  0.884  0.945  0.255  1.000
  O45  O2-  0.884  0.945  0.455  1.000
  O45  O2-  0.884  0.945  0.655  1.000
  O45  O2-  0.884  0.945  0.855  1.000
  O46  O2-  0.083  0.002  0.063  1.000
  O46  O2-  0.083  0.002  0.263  1.000
  O46  O2-  0.083  0.002  0.463  1.000
  O46  O2-  0.083  0.002  0.663  1.000
  O46  O2-  0.083  0.002  0.863  1.000
  O46  O2-  0.083  0.202  0.063  1.000
  O46  O2-  0.083  0.202  0.263  1.000
  O46  O2-  0.083  0.202  0.463  1.000
  O46  O2-  0.083  0.202  0.663  1.000
  O46  O2-  0.083  0.202  0.863  1.000
  O46  O2-  0.083  0.402  0.063  1.000
  O46  O2-  0.083  0.402  0.263  1.000
  O46  O2-  0.083  0.402  0.463  1.000
  O46  O2-  0.083  0.402  0.663  1.000
  O46  O2-  0.083  0.402  0.863  1.000
  O46  O2-  0.083  0.602  0.063  1.000
  O46  O2-  0.083  0.602  0.263  1.000
  O46  O2-  0.083  0.602  0.463  1.000
  O46  O2-  0.083  0.602  0.663  1.000
  O46  O2-  0.083  0.602  0.863  1.000
  O46  O2-  0.083  0.802  0.063  1.000
  O46  O2-  0.083  0.802  0.263  1.000
  O46  O2-  0.083  0.802  0.463  1.000
  O46  O2-  0.083  0.802  0.663  1.000
  O46  O2-  0.083  0.802  0.863  1.000
  O46  O2-  0.283  0.002  0.063  1.000
  O46  O2-  0.283  0.002  0.263  1.000
  O46  O2-  0.283  0.002  0.463  1.000
  O46  O2-  0.283  0.002  0.663  1.000
  O46  O2-  0.283  0.002  0.863  1.000
  O46  O2-  0.283  0.202  0.063  1.000
  O46  O2-  0.283  0.202  0.263  1.000
  O46  O2-  0.283  0.202  0.463  1.000
  O46  O2-  0.283  0.202  0.663  1.000
  O46  O2-  0.283  0.202  0.863  1.000
  O46  O2-  0.283  0.402  0.063  1.000
  O46  O2-  0.283  0.402  0.263  1.000
  O46  O2-  0.283  0.402  0.463  1.000
  O46  O2-  0.283  0.402  0.663  1.000
  O46  O2-  0.283  0.402  0.863  1.000
  O46  O2-  0.283  0.602  0.063  1.000
  O46  O2-  0.283  0.602  0.263  1.000
  O46  O2-  0.283  0.602  0.463  1.000
  O46  O2-  0.283  0.602  0.663  1.000
  O46  O2-  0.283  0.602  0.863  1.000
  O46  O2-  0.283  0.802  0.063  1.000
  O46  O2-  0.283  0.802  0.263  1.000
  O46  O2-  0.283  0.802  0.463  1.000
  O46  O2-  0.283  0.802  0.663  1.000
  O46  O2-  0.283  0.802  0.863  1.000
  O46  O2-  0.483  0.002  0.063  1.000
  O46  O2-  0.483  0.002  0.263  1.000
  O46  O2-  0.483  0.002  0.463  1.000
  O46  O2-  0.483  0.002  0.663  1.000
  O46  O2-  0.483  0.002  0.863  1.000
  O46  O2-  0.483  0.202  0.063  1.000
  O46  O2-  0.483  0.202  0.263  1.000
  O46  O2-  0.483  0.202  0.463  1.000
  O46  O2-  0.483  0.202  0.663  1.000
  O46  O2-  0.483  0.202  0.863  1.000
  O46  O2-  0.483  0.402  0.063  1.000
  O46  O2-  0.483  0.402  0.263  1.000
  O46  O2-  0.483  0.402  0.463  1.000
  O46  O2-  0.483  0.402  0.663  1.000
  O46  O2-  0.483  0.402  0.863  1.000
  O46  O2-  0.483  0.602  0.063  1.000
  O46  O2-  0.483  0.602  0.263  1.000
  O46  O2-  0.483  0.602  0.463  1.000
  O46  O2-  0.483  0.602  0.663  1.000
  O46  O2-  0.483  0.602  0.863  1.000
  O46  O2-  0.483  0.802  0.063  1.000
  O46  O2-  0.483  0.802  0.263  1.000
  O46  O2-  0.483  0.802  0.463  1.000
  O46  O2-  0.483  0.802  0.663  1.000
  O46  O2-  0.483  0.802  0.863  1.000
  O46  O2-  0.683  0.002  0.063  1.000
  O46  O2-  0.683  0.002  0.263  1.000
  O46  O2-  0.683  0.002  0.463  1.000
  O46  O2-  0.683  0.002  0.663  1.000
  O46  O2-  0.683  0.002  0.863  1.000
  O46  O2-  0.683  0.202  0.063  1.000
  O46  O2-  0.683  0.202  0.263  1.000
  O46  O2-  0.683  0.202  0.463  1.000
  O46  O2-  0.683  0.202  0.663  1.000
  O46  O2-  0.683  0.202  0.863  1.000
  O46  O2-  0.683  0.402  0.063  1.000
  O46  O2-  0.683  0.402  0.263  1.000
  O46  O2-  0.683  0.402  0.463  1.000
  O46  O2-  0.683  0.402  0.663  1.000
  O46  O2-  0.683  0.402  0.863  1.000
  O46  O2-  0.683  0.602  0.063  1.000
  O46  O2-  0.683  0.602  0.263  1.000
  O46  O2-  0.683  0.602  0.463  1.000
  O46  O2-  0.683  0.602  0.663  1.000
  O46  O2-  0.683  0.602  0.863  1.000
  O46  O2-  0.683  0.802  0.063  1.000
  O46  O2-  0.683  0.802  0.263  1.000
  O46  O2-  0.683  0.802  0.463  1.000
  O46  O2-  0.683  0.802  0.663  1.000
  O46  O2-  0.683  0.802  0.863  1.000
  O46  O2-  0.883  0.002  0.063  1.000
  O46  O2-  0.883  0.002  0.263  1.000
  O46  O2-  0.883  0.002  0.463  1.000
  O46  O2-  0.883  0.002  0.663  1.000
  O46  O2-  0.883  0.002  0.863  1.000
  O46  O2-  0.883  0.202  0.063  1.000
  O46  O2-  0.883  0.202  0.263  1.000
  O46  O2-  0.883  0.202  0.463  1.000
  O46  O2-  0.883  0.202  0.663  1.000
  O46  O2-  0.883  0.202  0.863  1.000
  O46  O2-  0.883  0.402  0.063  1.000
  O46  O2-  0.883  0.402  0.263  1.000
  O46  O2-  0.883  0.402  0.463  1.000
  O46  O2-  0.883  0.402  0.663  1.000
  O46  O2-  0.883  0.402  0.863  1.000
  O46  O2-  0.883  0.602  0.063  1.000
  O46  O2-  0.883  0.602  0.263  1.000
  O46  O2-  0.883  0.602  0.463  1.000
  O46  O2-  0.883  0.602  0.663  1.000
  O46  O2-  0.883  0.602  0.863  1.000
  O46  O2-  0.883  0.802  0.063  1.000
  O46  O2-  0.883  0.802  0.263  1.000
  O46  O2-  0.883  0.802  0.463  1.000
  O46  O2-  0.883  0.802  0.663  1.000
  O46  O2-  0.883  0.802  0.863  1.000
  O47  O2-  0.083  0.198  0.137  1.000
  O47  O2-  0.083  0.198  0.337  1.000
  O47  O2-  0.083  0.198  0.537  1.000
  O47  O2-  0.083  0.198  0.737  1.000
  O47  O2-  0.083  0.198  0.937  1.000
  O47  O2-  0.083  0.398  0.137  1.000
  O47  O2-  0.083  0.398  0.337  1.000
  O47  O2-  0.083  0.398  0.537  1.000
  O47  O2-  0.083  0.398  0.737  1.000
  O47  O2-  0.083  0.398  0.937  1.000
  O47  O2-  0.083  0.598  0.137  1.000
  O47  O2-  0.083  0.598  0.337  1.000
  O47  O2-  0.083  0.598  0.537  1.000
  O47  O2-  0.083  0.598  0.737  1.000
  O47  O2-  0.083  0.598  0.937  1.000
  O47  O2-  0.083  0.798  0.137  1.000
  O47  O2-  0.083  0.798  0.337  1.000
  O47  O2-  0.083  0.798  0.537  1.000
  O47  O2-  0.083  0.798  0.737  1.000
  O47  O2-  0.083  0.798  0.937  1.000
  O47  O2-  0.083  0.998  0.137  1.000
  O47  O2-  0.083  0.998  0.337  1.000
  O47  O2-  0.083  0.998  0.537  1.000
  O47  O2-  0.083  0.998  0.737  1.000
  O47  O2-  0.083  0.998  0.937  1.000
  O47  O2-  0.283  0.198  0.137  1.000
  O47  O2-  0.283  0.198  0.337  1.000
  O47  O2-  0.283  0.198  0.537  1.000
  O47  O2-  0.283  0.198  0.737  1.000
  O47  O2-  0.283  0.198  0.937  1.000
  O47  O2-  0.283  0.398  0.137  1.000
  O47  O2-  0.283  0.398  0.337  1.000
  O47  O2-  0.283  0.398  0.537  1.000
  O47  O2-  0.283  0.398  0.737  1.000
  O47  O2-  0.283  0.398  0.937  1.000
  O47  O2-  0.283  0.598  0.137  1.000
  O47  O2-  0.283  0.598  0.337  1.000
  O47  O2-  0.283  0.598  0.537  1.000
  O47  O2-  0.283  0.598  0.737  1.000
  O47  O2-  0.283  0.598  0.937  1.000
  O47  O2-  0.283  0.798  0.137  1.000
  O47  O2-  0.283  0.798  0.337  1.000
  O47  O2-  0.283  0.798  0.537  1.000
  O47  O2-  0.283  0.798  0.737  1.000
  O47  O2-  0.283  0.798  0.937  1.000
  O47  O2-  0.283  0.998  0.137  1.000
  O47  O2-  0.283  0.998  0.337  1.000
  O47  O2-  0.283  0.998  0.537  1.000
  O47  O2-  0.283  0.998  0.737  1.000
  O47  O2-  0.283  0.998  0.937  1.000
  O47  O2-  0.483  0.198  0.137  1.000
  O47  O2-  0.483  0.198  0.337  1.000
  O47  O2-  0.483  0.198  0.537  1.000
  O47  O2-  0.483  0.198  0.737  1.000
  O47  O2-  0.483  0.198  0.937  1.000
  O47  O2-  0.483  0.398  0.137  1.000
  O47  O2-  0.483  0.398  0.337  1.000
  O47  O2-  0.483  0.398  0.537  1.000
  O47  O2-  0.483  0.398  0.737  1.000
  O47  O2-  0.483  0.398  0.937  1.000
  O47  O2-  0.483  0.598  0.137  1.000
  O47  O2-  0.483  0.598  0.337  1.000
  O47  O2-  0.483  0.598  0.537  1.000
  O47  O2-  0.483  0.598  0.737  1.000
  O47  O2-  0.483  0.598  0.937  1.000
  O47  O2-  0.483  0.798  0.137  1.000
  O47  O2-  0.483  0.798  0.337  1.000
  O47  O2-  0.483  0.798  0.537  1.000
  O47  O2-  0.483  0.798  0.737  1.000
  O47  O2-  0.483  0.798  0.937  1.000
  O47  O2-  0.483  0.998  0.137  1.000
  O47  O2-  0.483  0.998  0.337  1.000
  O47  O2-  0.483  0.998  0.537  1.000
  O47  O2-  0.483  0.998  0.737  1.000
  O47  O2-  0.483  0.998  0.937  1.000
  O47  O2-  0.683  0.198  0.137  1.000
  O47  O2-  0.683  0.198  0.337  1.000
  O47  O2-  0.683  0.198  0.537  1.000
  O47  O2-  0.683  0.198  0.737  1.000
  O47  O2-  0.683  0.198  0.937  1.000
  O47  O2-  0.683  0.398  0.137  1.000
  O47  O2-  0.683  0.398  0.337  1.000
  O47  O2-  0.683  0.398  0.537  1.000
  O47  O2-  0.683  0.398  0.737  1.000
  O47  O2-  0.683  0.398  0.937  1.000
  O47  O2-  0.683  0.598  0.137  1.000
  O47  O2-  0.683  0.598  0.337  1.000
  O47  O2-  0.683  0.598  0.537  1.000
  O47  O2-  0.683  0.598  0.737  1.000
  O47  O2-  0.683  0.598  0.937  1.000
  O47  O2-  0.683  0.798  0.137  1.000
  O47  O2-  0.683  0.798  0.337  1.000
  O47  O2-  0.683  0.798  0.537  1.000
  O47  O2-  0.683  0.798  0.737  1.000
  O47  O2-  0.683  0.798  0.937  1.000
  O47  O2-  0.683  0.998  0.137  1.000
  O47  O2-  0.683  0.998  0.337  1.000
  O47  O2-  0.683  0.998  0.537  1.000
  O47  O2-  0.683  0.998  0.737  1.000
  O47  O2-  0.683  0.998  0.937  1.000
  O47  O2-  0.883  0.198  0.137  1.000
  O47  O2-  0.883  0.198  0.337  1.000
  O47  O2-  0.883  0.198  0.537  1.000
  O47  O2-  0.883  0.198  0.737  1.000
  O47  O2-  0.883  0.198  0.937  1.000
  O47  O2-  0.883  0.398  0.137  1.000
  O47  O2-  0.883  0.398  0.337  1.000
  O47  O2-  0.883  0.398  0.537  1.000
  O47  O2-  0.883  0.398  0.737  1.000
  O47  O2-  0.883  0.398  0.937  1.000
  O47  O2-  0.883  0.598  0.137  1.000
  O47  O2-  0.883  0.598  0.337  1.000
  O47  O2-  0.883  0.598  0.537  1.000
  O47  O2-  0.883  0.598  0.737  1.000
  O47  O2-  0.883  0.598  0.937  1.000
  O47  O2-  0.883  0.798  0.137  1.000
  O47  O2-  0.883  0.798  0.337  1.000
  O47  O2-  0.883  0.798  0.537  1.000
  O47  O2-  0.883  0.798  0.737  1.000
  O47  O2-  0.883  0.798  0.937  1.000
  O47  O2-  0.883  0.998  0.137  1.000
  O47  O2-  0.883  0.998  0.337  1.000
  O47  O2-  0.883  0.998  0.537  1.000
  O47  O2-  0.883  0.998  0.737  1.000
  O47  O2-  0.883  0.998  0.937  1.000
  O48  O2-  0.081  0.019  0.184  1.000
  O48  O2-  0.081  0.019  0.384  1.000
  O48  O2-  0.081  0.019  0.584  1.000
  O48  O2-  0.081  0.019  0.784  1.000
  O48  O2-  0.081  0.019  0.984  1.000
  O48  O2-  0.081  0.219  0.184  1.000
  O48  O2-  0.081  0.219  0.384  1.000
  O48  O2-  0.081  0.219  0.584  1.000
  O48  O2-  0.081  0.219  0.784  1.000
  O48  O2-  0.081  0.219  0.984  1.000
  O48  O2-  0.081  0.419  0.184  1.000
  O48  O2-  0.081  0.419  0.384  1.000
  O48  O2-  0.081  0.419  0.584  1.000
  O48  O2-  0.081  0.419  0.784  1.000
  O48  O2-  0.081  0.419  0.984  1.000
  O48  O2-  0.081  0.619  0.184  1.000
  O48  O2-  0.081  0.619  0.384  1.000
  O48  O2-  0.081  0.619  0.584  1.000
  O48  O2-  0.081  0.619  0.784  1.000
  O48  O2-  0.081  0.619  0.984  1.000
  O48  O2-  0.081  0.819  0.184  1.000
  O48  O2-  0.081  0.819  0.384  1.000
  O48  O2-  0.081  0.819  0.584  1.000
  O48  O2-  0.081  0.819  0.784  1.000
  O48  O2-  0.081  0.819  0.984  1.000
  O48  O2-  0.281  0.019  0.184  1.000
  O48  O2-  0.281  0.019  0.384  1.000
  O48  O2-  0.281  0.019  0.584  1.000
  O48  O2-  0.281  0.019  0.784  1.000
  O48  O2-  0.281  0.019  0.984  1.000
  O48  O2-  0.281  0.219  0.184  1.000
  O48  O2-  0.281  0.219  0.384  1.000
  O48  O2-  0.281  0.219  0.584  1.000
  O48  O2-  0.281  0.219  0.784  1.000
  O48  O2-  0.281  0.219  0.984  1.000
  O48  O2-  0.281  0.419  0.184  1.000
  O48  O2-  0.281  0.419  0.384  1.000
  O48  O2-  0.281  0.419  0.584  1.000
  O48  O2-  0.281  0.419  0.784  1.000
  O48  O2-  0.281  0.419  0.984  1.000
  O48  O2-  0.281  0.619  0.184  1.000
  O48  O2-  0.281  0.619  0.384  1.000
  O48  O2-  0.281  0.619  0.584  1.000
  O48  O2-  0.281  0.619  0.784  1.000
  O48  O2-  0.281  0.619  0.984  1.000
  O48  O2-  0.281  0.819  0.184  1.000
  O48  O2-  0.281  0.819  0.384  1.000
  O48  O2-  0.281  0.819  0.584  1.000
  O48  O2-  0.281  0.819  0.784  1.000
  O48  O2-  0.281  0.819  0.984  1.000
  O48  O2-  0.481  0.019  0.184  1.000
  O48  O2-  0.481  0.019  0.384  1.000
  O48  O2-  0.481  0.019  0.584  1.000
  O48  O2-  0.481  0.019  0.784  1.000
  O48  O2-  0.481  0.019  0.984  1.000
  O48  O2-  0.481  0.219  0.184  1.000
  O48  O2-  0.481  0.219  0.384  1.000
  O48  O2-  0.481  0.219  0.584  1.000
  O48  O2-  0.481  0.219  0.784  1.000
  O48  O2-  0.481  0.219  0.984  1.000
  O48  O2-  0.481  0.419  0.184  1.000
  O48  O2-  0.481  0.419  0.384  1.000
  O48  O2-  0.481  0.419  0.584  1.000
  O48  O2-  0.481  0.419  0.784  1.000
  O48  O2-  0.481  0.419  0.984  1.000
  O48  O2-  0.481  0.619  0.184  1.000
  O48  O2-  0.481  0.619  0.384  1.000
  O48  O2-  0.481  0.619  0.584  1.000
  O48  O2-  0.481  0.619  0.784  1.000
  O48  O2-  0.481  0.619  0.984  1.000
  O48  O2-  0.481  0.819  0.184  1.000
  O48  O2-  0.481  0.819  0.384  1.000
  O48  O2-  0.481  0.819  0.584  1.000
  O48  O2-  0.481  0.819  0.784  1.000
  O48  O2-  0.481  0.819  0.984  1.000
  O48  O2-  0.681  0.019  0.184  1.000
  O48  O2-  0.681  0.019  0.384  1.000
  O48  O2-  0.681  0.019  0.584  1.000
  O48  O2-  0.681  0.019  0.784  1.000
  O48  O2-  0.681  0.019  0.984  1.000
  O48  O2-  0.681  0.219  0.184  1.000
  O48  O2-  0.681  0.219  0.384  1.000
  O48  O2-  0.681  0.219  0.584  1.000
  O48  O2-  0.681  0.219  0.784  1.000
  O48  O2-  0.681  0.219  0.984  1.000
  O48  O2-  0.681  0.419  0.184  1.000
  O48  O2-  0.681  0.419  0.384  1.000
  O48  O2-  0.681  0.419  0.584  1.000
  O48  O2-  0.681  0.419  0.784  1.000
  O48  O2-  0.681  0.419  0.984  1.000
  O48  O2-  0.681  0.619  0.184  1.000
  O48  O2-  0.681  0.619  0.384  1.000
  O48  O2-  0.681  0.619  0.584  1.000
  O48  O2-  0.681  0.619  0.784  1.000
  O48  O2-  0.681  0.619  0.984  1.000
  O48  O2-  0.681  0.819  0.184  1.000
  O48  O2-  0.681  0.819  0.384  1.000
  O48  O2-  0.681  0.819  0.584  1.000
  O48  O2-  0.681  0.819  0.784  1.000
  O48  O2-  0.681  0.819  0.984  1.000
  O48  O2-  0.881  0.019  0.184  1.000
  O48  O2-  0.881  0.019  0.384  1.000
  O48  O2-  0.881  0.019  0.584  1.000
  O48  O2-  0.881  0.019  0.784  1.000
  O48  O2-  0.881  0.019  0.984  1.000
  O48  O2-  0.881  0.219  0.184  1.000
  O48  O2-  0.881  0.219  0.384  1.000
  O48  O2-  0.881  0.219  0.584  1.000
  O48  O2-  0.881  0.219  0.784  1.000
  O48  O2-  0.881  0.219  0.984  1.000
  O48  O2-  0.881  0.419  0.184  1.000
  O48  O2-  0.881  0.419  0.384  1.000
  O48  O2-  0.881  0.419  0.584  1.000
  O48  O2-  0.881  0.419  0.784  1.000
  O48  O2-  0.881  0.419  0.984  1.000
  O48  O2-  0.881  0.619  0.184  1.000
  O48  O2-  0.881  0.619  0.384  1.000
  O48  O2-  0.881  0.619  0.584  1.000
  O48  O2-  0.881  0.619  0.784  1.000
  O48  O2-  0.881  0.619  0.984  1.000
  O48  O2-  0.881  0.819  0.184  1.000
  O48  O2-  0.881  0.819  0.384  1.000
  O48  O2-  0.881  0.819  0.584  1.000
  O48  O2-  0.881  0.819  0.784  1.000
  O48  O2-  0.881  0.819  0.984  1.000
  O49  O2-  0.081  0.181  0.016  1.000
  O49  O2-  0.081  0.181  0.216  1.000
  O49  O2-  0.081  0.181  0.416  1.000
  O49  O2-  0.081  0.181  0.616  1.000
  O49  O2-  0.081  0.181  0.816  1.000
  O49  O2-  0.081  0.381  0.016  1.000
  O49  O2-  0.081  0.381  0.216  1.000
  O49  O2-  0.081  0.381  0.416  1.000
  O49  O2-  0.081  0.381  0.616  1.000
  O49  O2-  0.081  0.381  0.816  1.000
  O49  O2-  0.081  0.581  0.016  1.000
  O49  O2-  0.081  0.581  0.216  1.000
  O49  O2-  0.081  0.581  0.416  1.000
  O49  O2-  0.081  0.581  0.616  1.000
  O49  O2-  0.081  0.581  0.816  1.000
  O49  O2-  0.081  0.781  0.016  1.000
  O49  O2-  0.081  0.781  0.216  1.000
  O49  O2-  0.081  0.781  0.416  1.000
  O49  O2-  0.081  0.781  0.616  1.000
  O49  O2-  0.081  0.781  0.816  1.000
  O49  O2-  0.081  0.981  0.016  1.000
  O49  O2-  0.081  0.981  0.216  1.000
  O49  O2-  0.081  0.981  0.416  1.000
  O49  O2-  0.081  0.981  0.616  1.000
  O49  O2-  0.081  0.981  0.816  1.000
  O49  O2-  0.281  0.181  0.016  1.000
  O49  O2-  0.281  0.181  0.216  1.000
  O49  O2-  0.281  0.181  0.416  1.000
  O49  O2-  0.281  0.181  0.616  1.000
  O49  O2-  0.281  0.181  0.816  1.000
  O49  O2-  0.281  0.381  0.016  1.000
  O49  O2-  0.281  0.381  0.216  1.000
  O49  O2-  0.281  0.381  0.416  1.000
  O49  O2-  0.281  0.381  0.616  1.000
  O49  O2-  0.281  0.381  0.816  1.000
  O49  O2-  0.281  0.581  0.016  1.000
  O49  O2-  0.281  0.581  0.216  1.000
  O49  O2-  0.281  0.581  0.416  1.000
  O49  O2-  0.281  0.581  0.616  1.000
  O49  O2-  0.281  0.581  0.816  1.000
  O49  O2-  0.281  0.781  0.016  1.000
  O49  O2-  0.281  0.781  0.216  1.000
  O49  O2-  0.281  0.781  0.416  1.000
  O49  O2-  0.281  0.781  0.616  1.000
  O49  O2-  0.281  0.781  0.816  1.000
  O49  O2-  0.281  0.981  0.016  1.000
  O49  O2-  0.281  0.981  0.216  1.000
  O49  O2-  0.281  0.981  0.416  1.000
  O49  O2-  0.281  0.981  0.616  1.000
  O49  O2-  0.281  0.981  0.816  1.000
  O49  O2-  0.481  0.181  0.016  1.000
  O49  O2-  0.481  0.181  0.216  1.000
  O49  O2-  0.481  0.181  0.416  1.000
  O49  O2-  0.481  0.181  0.616  1.000
  O49  O2-  0.481  0.181  0.816  1.000
  O49  O2-  0.481  0.381  0.016  1.000
  O49  O2-  0.481  0.381  0.216  1.000
  O49  O2-  0.481  0.381  0.416  1.000
  O49  O2-  0.481  0.381  0.616  1.000
  O49  O2-  0.481  0.381  0.816  1.000
  O49  O2-  0.481  0.581  0.016  1.000
  O49  O2-  0.481  0.581  0.216  1.000
  O49  O2-  0.481  0.581  0.416  1.000
  O49  O2-  0.481  0.581  0.616  1.000
  O49  O2-  0.481  0.581  0.816  1.000
  O49  O2-  0.481  0.781  0.016  1.000
  O49  O2-  0.481  0.781  0.216  1.000
  O49  O2-  0.481  0.781  0.416  1.000
  O49  O2-  0.481  0.781  0.616  1.000
  O49  O2-  0.481  0.781  0.816  1.000
  O49  O2-  0.481  0.981  0.016  1.000
  O49  O2-  0.481  0.981  0.216  1.000
  O49  O2-  0.481  0.981  0.416  1.000
  O49  O2-  0.481  0.981  0.616  1.000
  O49  O2-  0.481  0.981  0.816  1.000
  O49  O2-  0.681  0.181  0.016  1.000
  O49  O2-  0.681  0.181  0.216  1.000
  O49  O2-  0.681  0.181  0.416  1.000
  O49  O2-  0.681  0.181  0.616  1.000
  O49  O2-  0.681  0.181  0.816  1.000
  O49  O2-  0.681  0.381  0.016  1.000
  O49  O2-  0.681  0.381  0.216  1.000
  O49  O2-  0.681  0.381  0.416  1.000
  O49  O2-  0.681  0.381  0.616  1.000
  O49  O2-  0.681  0.381  0.816  1.000
  O49  O2-  0.681  0.581  0.016  1.000
  O49  O2-  0.681  0.581  0.216  1.000
  O49  O2-  0.681  0.581  0.416  1.000
  O49  O2-  0.681  0.581  0.616  1.000
  O49  O2-  0.681  0.581  0.816  1.000
  O49  O2-  0.681  0.781  0.016  1.000
  O49  O2-  0.681  0.781  0.216  1.000
  O49  O2-  0.681  0.781  0.416  1.000
  O49  O2-  0.681  0.781  0.616  1.000
  O49  O2-  0.681  0.781  0.816  1.000
  O49  O2-  0.681  0.981  0.016  1.000
  O49  O2-  0.681  0.981  0.216  1.000
  O49  O2-  0.681  0.981  0.416  1.000
  O49  O2-  0.681  0.981  0.616  1.000
  O49  O2-  0.681  0.981  0.816  1.000
  O49  O2-  0.881  0.181  0.016  1.000
  O49  O2-  0.881  0.181  0.216  1.000
  O49  O2-  0.881  0.181  0.416  1.000
  O49  O2-  0.881  0.181  0.616  1.000
  O49  O2-  0.881  0.181  0.816  1.000
  O49  O2-  0.881  0.381  0.016  1.000
  O49  O2-  0.881  0.381  0.216  1.000
  O49  O2-  0.881  0.381  0.416  1.000
  O49  O2-  0.881  0.381  0.616  1.000
  O49  O2-  0.881  0.381  0.816  1.000
  O49  O2-  0.881  0.581  0.016  1.000
  O49  O2-  0.881  0.581  0.216  1.000
  O49  O2-  0.881  0.581  0.416  1.000
  O49  O2-  0.881  0.581  0.616  1.000
  O49  O2-  0.881  0.581  0.816  1.000
  O49  O2-  0.881  0.781  0.016  1.000
  O49  O2-  0.881  0.781  0.216  1.000
  O49  O2-  0.881  0.781  0.416  1.000
  O49  O2-  0.881  0.781  0.616  1.000
  O49  O2-  0.881  0.781  0.816  1.000
  O49  O2-  0.881  0.981  0.016  1.000
  O49  O2-  0.881  0.981  0.216  1.000
  O49  O2-  0.881  0.981  0.416  1.000
  O49  O2-  0.881  0.981  0.616  1.000
  O49  O2-  0.881  0.981  0.816  1.000
  O50  O2-  0.080  0.036  0.106  1.000
  O50  O2-  0.080  0.036  0.306  1.000
  O50  O2-  0.080  0.036  0.506  1.000
  O50  O2-  0.080  0.036  0.706  1.000
  O50  O2-  0.080  0.036  0.906  1.000
  O50  O2-  0.080  0.236  0.106  1.000
  O50  O2-  0.080  0.236  0.306  1.000
  O50  O2-  0.080  0.236  0.506  1.000
  O50  O2-  0.080  0.236  0.706  1.000
  O50  O2-  0.080  0.236  0.906  1.000
  O50  O2-  0.080  0.436  0.106  1.000
  O50  O2-  0.080  0.436  0.306  1.000
  O50  O2-  0.080  0.436  0.506  1.000
  O50  O2-  0.080  0.436  0.706  1.000
  O50  O2-  0.080  0.436  0.906  1.000
  O50  O2-  0.080  0.636  0.106  1.000
  O50  O2-  0.080  0.636  0.306  1.000
  O50  O2-  0.080  0.636  0.506  1.000
  O50  O2-  0.080  0.636  0.706  1.000
  O50  O2-  0.080  0.636  0.906  1.000
  O50  O2-  0.080  0.836  0.106  1.000
  O50  O2-  0.080  0.836  0.306  1.000
  O50  O2-  0.080  0.836  0.506  1.000
  O50  O2-  0.080  0.836  0.706  1.000
  O50  O2-  0.080  0.836  0.906  1.000
  O50  O2-  0.280  0.036  0.106  1.000
  O50  O2-  0.280  0.036  0.306  1.000
  O50  O2-  0.280  0.036  0.506  1.000
  O50  O2-  0.280  0.036  0.706  1.000
  O50  O2-  0.280  0.036  0.906  1.000
  O50  O2-  0.280  0.236  0.106  1.000
  O50  O2-  0.280  0.236  0.306  1.000
  O50  O2-  0.280  0.236  0.506  1.000
  O50  O2-  0.280  0.236  0.706  1.000
  O50  O2-  0.280  0.236  0.906  1.000
  O50  O2-  0.280  0.436  0.106  1.000
  O50  O2-  0.280  0.436  0.306  1.000
  O50  O2-  0.280  0.436  0.506  1.000
  O50  O2-  0.280  0.436  0.706  1.000
  O50  O2-  0.280  0.436  0.906  1.000
  O50  O2-  0.280  0.636  0.106  1.000
  O50  O2-  0.280  0.636  0.306  1.000
  O50  O2-  0.280  0.636  0.506  1.000
  O50  O2-  0.280  0.636  0.706  1.000
  O50  O2-  0.280  0.636  0.906  1.000
  O50  O2-  0.280  0.836  0.106  1.000
  O50  O2-  0.280  0.836  0.306  1.000
  O50  O2-  0.280  0.836  0.506  1.000
  O50  O2-  0.280  0.836  0.706  1.000
  O50  O2-  0.280  0.836  0.906  1.000
  O50  O2-  0.480  0.036  0.106  1.000
  O50  O2-  0.480  0.036  0.306  1.000
  O50  O2-  0.480  0.036  0.506  1.000
  O50  O2-  0.480  0.036  0.706  1.000
  O50  O2-  0.480  0.036  0.906  1.000
  O50  O2-  0.480  0.236  0.106  1.000
  O50  O2-  0.480  0.236  0.306  1.000
  O50  O2-  0.480  0.236  0.506  1.000
  O50  O2-  0.480  0.236  0.706  1.000
  O50  O2-  0.480  0.236  0.906  1.000
  O50  O2-  0.480  0.436  0.106  1.000
  O50  O2-  0.480  0.436  0.306  1.000
  O50  O2-  0.480  0.436  0.506  1.000
  O50  O2-  0.480  0.436  0.706  1.000
  O50  O2-  0.480  0.436  0.906  1.000
  O50  O2-  0.480  0.636  0.106  1.000
  O50  O2-  0.480  0.636  0.306  1.000
  O50  O2-  0.480  0.636  0.506  1.000
  O50  O2-  0.480  0.636  0.706  1.000
  O50  O2-  0.480  0.636  0.906  1.000
  O50  O2-  0.480  0.836  0.106  1.000
  O50  O2-  0.480  0.836  0.306  1.000
  O50  O2-  0.480  0.836  0.506  1.000
  O50  O2-  0.480  0.836  0.706  1.000
  O50  O2-  0.480  0.836  0.906  1.000
  O50  O2-  0.680  0.036  0.106  1.000
  O50  O2-  0.680  0.036  0.306  1.000
  O50  O2-  0.680  0.036  0.506  1.000
  O50  O2-  0.680  0.036  0.706  1.000
  O50  O2-  0.680  0.036  0.906  1.000
  O50  O2-  0.680  0.236  0.106  1.000
  O50  O2-  0.680  0.236  0.306  1.000
  O50  O2-  0.680  0.236  0.506  1.000
  O50  O2-  0.680  0.236  0.706  1.000
  O50  O2-  0.680  0.236  0.906  1.000
  O50  O2-  0.680  0.436  0.106  1.000
  O50  O2-  0.680  0.436  0.306  1.000
  O50  O2-  0.680  0.436  0.506  1.000
  O50  O2-  0.680  0.436  0.706  1.000
  O50  O2-  0.680  0.436  0.906  1.000
  O50  O2-  0.680  0.636  0.106  1.000
  O50  O2-  0.680  0.636  0.306  1.000
  O50  O2-  0.680  0.636  0.506  1.000
  O50  O2-  0.680  0.636  0.706  1.000
  O50  O2-  0.680  0.636  0.906  1.000
  O50  O2-  0.680  0.836  0.106  1.000
  O50  O2-  0.680  0.836  0.306  1.000
  O50  O2-  0.680  0.836  0.506  1.000
  O50  O2-  0.680  0.836  0.706  1.000
  O50  O2-  0.680  0.836  0.906  1.000
  O50  O2-  0.880  0.036  0.106  1.000
  O50  O2-  0.880  0.036  0.306  1.000
  O50  O2-  0.880  0.036  0.506  1.000
  O50  O2-  0.880  0.036  0.706  1.000
  O50  O2-  0.880  0.036  0.906  1.000
  O50  O2-  0.880  0.236  0.106  1.000
  O50  O2-  0.880  0.236  0.306  1.000
  O50  O2-  0.880  0.236  0.506  1.000
  O50  O2-  0.880  0.236  0.706  1.000
  O50  O2-  0.880  0.236  0.906  1.000
  O50  O2-  0.880  0.436  0.106  1.000
  O50  O2-  0.880  0.436  0.306  1.000
  O50  O2-  0.880  0.436  0.506  1.000
  O50  O2-  0.880  0.436  0.706  1.000
  O50  O2-  0.880  0.436  0.906  1.000
  O50  O2-  0.880  0.636  0.106  1.000
  O50  O2-  0.880  0.636  0.306  1.000
  O50  O2-  0.880  0.636  0.506  1.000
  O50  O2-  0.880  0.636  0.706  1.000
  O50  O2-  0.880  0.636  0.906  1.000
  O50  O2-  0.880  0.836  0.106  1.000
  O50  O2-  0.880  0.836  0.306  1.000
  O50  O2-  0.880  0.836  0.506  1.000
  O50  O2-  0.880  0.836  0.706  1.000
  O50  O2-  0.880  0.836  0.906  1.000
  O51  O2-  0.080  0.164  0.094  1.000
  O51  O2-  0.080  0.164  0.294  1.000
  O51  O2-  0.080  0.164  0.494  1.000
  O51  O2-  0.080  0.164  0.694  1.000
  O51  O2-  0.080  0.164  0.894  1.000
  O51  O2-  0.080  0.364  0.094  1.000
  O51  O2-  0.080  0.364  0.294  1.000
  O51  O2-  0.080  0.364  0.494  1.000
  O51  O2-  0.080  0.364  0.694  1.000
  O51  O2-  0.080  0.364  0.894  1.000
  O51  O2-  0.080  0.564  0.094  1.000
  O51  O2-  0.080  0.564  0.294  1.000
  O51  O2-  0.080  0.564  0.494  1.000
  O51  O2-  0.080  0.564  0.694  1.000
  O51  O2-  0.080  0.564  0.894  1.000
  O51  O2-  0.080  0.764  0.094  1.000
  O51  O2-  0.080  0.764  0.294  1.000
  O51  O2-  0.080  0.764  0.494  1.000
  O51  O2-  0.080  0.764  0.694  1.000
  O51  O2-  0.080  0.764  0.894  1.000
  O51  O2-  0.080  0.964  0.094  1.000
  O51  O2-  0.080  0.964  0.294  1.000
  O51  O2-  0.080  0.964  0.494  1.000
  O51  O2-  0.080  0.964  0.694  1.000
  O51  O2-  0.080  0.964  0.894  1.000
  O51  O2-  0.280  0.164  0.094  1.000
  O51  O2-  0.280  0.164  0.294  1.000
  O51  O2-  0.280  0.164  0.494  1.000
  O51  O2-  0.280  0.164  0.694  1.000
  O51  O2-  0.280  0.164  0.894  1.000
  O51  O2-  0.280  0.364  0.094  1.000
  O51  O2-  0.280  0.364  0.294  1.000
  O51  O2-  0.280  0.364  0.494  1.000
  O51  O2-  0.280  0.364  0.694  1.000
  O51  O2-  0.280  0.364  0.894  1.000
  O51  O2-  0.280  0.564  0.094  1.000
  O51  O2-  0.280  0.564  0.294  1.000
  O51  O2-  0.280  0.564  0.494  1.000
  O51  O2-  0.280  0.564  0.694  1.000
  O51  O2-  0.280  0.564  0.894  1.000
  O51  O2-  0.280  0.764  0.094  1.000
  O51  O2-  0.280  0.764  0.294  1.000
  O51  O2-  0.280  0.764  0.494  1.000
  O51  O2-  0.280  0.764  0.694  1.000
  O51  O2-  0.280  0.764  0.894  1.000
  O51  O2-  0.280  0.964  0.094  1.000
  O51  O2-  0.280  0.964  0.294  1.000
  O51  O2-  0.280  0.964  0.494  1.000
  O51  O2-  0.280  0.964  0.694  1.000
  O51  O2-  0.280  0.964  0.894  1.000
  O51  O2-  0.480  0.164  0.094  1.000
  O51  O2-  0.480  0.164  0.294  1.000
  O51  O2-  0.480  0.164  0.494  1.000
  O51  O2-  0.480  0.164  0.694  1.000
  O51  O2-  0.480  0.164  0.894  1.000
  O51  O2-  0.480  0.364  0.094  1.000
  O51  O2-  0.480  0.364  0.294  1.000
  O51  O2-  0.480  0.364  0.494  1.000
  O51  O2-  0.480  0.364  0.694  1.000
  O51  O2-  0.480  0.364  0.894  1.000
  O51  O2-  0.480  0.564  0.094  1.000
  O51  O2-  0.480  0.564  0.294  1.000
  O51  O2-  0.480  0.564  0.494  1.000
  O51  O2-  0.480  0.564  0.694  1.000
  O51  O2-  0.480  0.564  0.894  1.000
  O51  O2-  0.480  0.764  0.094  1.000
  O51  O2-  0.480  0.764  0.294  1.000
  O51  O2-  0.480  0.764  0.494  1.000
  O51  O2-  0.480  0.764  0.694  1.000
  O51  O2-  0.480  0.764  0.894  1.000
  O51  O2-  0.480  0.964  0.094  1.000
  O51  O2-  0.480  0.964  0.294  1.000
  O51  O2-  0.480  0.964  0.494  1.000
  O51  O2-  0.480  0.964  0.694  1.000
  O51  O2-  0.480  0.964  0.894  1.000
  O51  O2-  0.680  0.164  0.094  1.000
  O51  O2-  0.680  0.164  0.294  1.000
  O51  O2-  0.680  0.164  0.494  1.000
  O51  O2-  0.680  0.164  0.694  1.000
  O51  O2-  0.680  0.164  0.894  1.000
  O51  O2-  0.680  0.364  0.094  1.000
  O51  O2-  0.680  0.364  0.294  1.000
  O51  O2-  0.680  0.364  0.494  1.000
  O51  O2-  0.680  0.364  0.694  1.000
  O51  O2-  0.680  0.364  0.894  1.000
  O51  O2-  0.680  0.564  0.094  1.000
  O51  O2-  0.680  0.564  0.294  1.000
  O51  O2-  0.680  0.564  0.494  1.000
  O51  O2-  0.680  0.564  0.694  1.000
  O51  O2-  0.680  0.564  0.894  1.000
  O51  O2-  0.680  0.764  0.094  1.000
  O51  O2-  0.680  0.764  0.294  1.000
  O51  O2-  0.680  0.764  0.494  1.000
  O51  O2-  0.680  0.764  0.694  1.000
  O51  O2-  0.680  0.764  0.894  1.000
  O51  O2-  0.680  0.964  0.094  1.000
  O51  O2-  0.680  0.964  0.294  1.000
  O51  O2-  0.680  0.964  0.494  1.000
  O51  O2-  0.680  0.964  0.694  1.000
  O51  O2-  0.680  0.964  0.894  1.000
  O51  O2-  0.880  0.164  0.094  1.000
  O51  O2-  0.880  0.164  0.294  1.000
  O51  O2-  0.880  0.164  0.494  1.000
  O51  O2-  0.880  0.164  0.694  1.000
  O51  O2-  0.880  0.164  0.894  1.000
  O51  O2-  0.880  0.364  0.094  1.000
  O51  O2-  0.880  0.364  0.294  1.000
  O51  O2-  0.880  0.364  0.494  1.000
  O51  O2-  0.880  0.364  0.694  1.000
  O51  O2-  0.880  0.364  0.894  1.000
  O51  O2-  0.880  0.564  0.094  1.000
  O51  O2-  0.880  0.564  0.294  1.000
  O51  O2-  0.880  0.564  0.494  1.000
  O51  O2-  0.880  0.564  0.694  1.000
  O51  O2-  0.880  0.564  0.894  1.000
  O51  O2-  0.880  0.764  0.094  1.000
  O51  O2-  0.880  0.764  0.294  1.000
  O51  O2-  0.880  0.764  0.494  1.000
  O51  O2-  0.880  0.764  0.694  1.000
  O51  O2-  0.880  0.764  0.894  1.000
  O51  O2-  0.880  0.964  0.094  1.000
  O51  O2-  0.880  0.964  0.294  1.000
  O51  O2-  0.880  0.964  0.494  1.000
  O51  O2-  0.880  0.964  0.694  1.000
  O51  O2-  0.880  0.964  0.894  1.000
  O52  O2-  0.064  0.069  0.067  1.000
  O52  O2-  0.064  0.069  0.267  1.000
  O52  O2-  0.064  0.069  0.467  1.000
  O52  O2-  0.064  0.069  0.667  1.000
  O52  O2-  0.064  0.069  0.867  1.000
  O52  O2-  0.064  0.269  0.067  1.000
  O52  O2-  0.064  0.269  0.267  1.000
  O52  O2-  0.064  0.269  0.467  1.000
  O52  O2-  0.064  0.269  0.667  1.000
  O52  O2-  0.064  0.269  0.867  1.000
  O52  O2-  0.064  0.469  0.067  1.000
  O52  O2-  0.064  0.469  0.267  1.000
  O52  O2-  0.064  0.469  0.467  1.000
  O52  O2-  0.064  0.469  0.667  1.000
  O52  O2-  0.064  0.469  0.867  1.000
  O52  O2-  0.064  0.669  0.067  1.000
  O52  O2-  0.064  0.669  0.267  1.000
  O52  O2-  0.064  0.669  0.467  1.000
  O52  O2-  0.064  0.669  0.667  1.000
  O52  O2-  0.064  0.669  0.867  1.000
  O52  O2-  0.064  0.869  0.067  1.000
  O52  O2-  0.064  0.869  0.267  1.000
  O52  O2-  0.064  0.869  0.467  1.000
  O52  O2-  0.064  0.869  0.667  1.000
  O52  O2-  0.064  0.869  0.867  1.000
  O52  O2-  0.264  0.069  0.067  1.000
  O52  O2-  0.264  0.069  0.267  1.000
  O52  O2-  0.264  0.069  0.467  1.000
  O52  O2-  0.264  0.069  0.667  1.000
  O52  O2-  0.264  0.069  0.867  1.000
  O52  O2-  0.264  0.269  0.067  1.000
  O52  O2-  0.264  0.269  0.267  1.000
  O52  O2-  0.264  0.269  0.467  1.000
  O52  O2-  0.264  0.269  0.667  1.000
  O52  O2-  0.264  0.269  0.867  1.000
  O52  O2-  0.264  0.469  0.067  1.000
  O52  O2-  0.264  0.469  0.267  1.000
  O52  O2-  0.264  0.469  0.467  1.000
  O52  O2-  0.264  0.469  0.667  1.000
  O52  O2-  0.264  0.469  0.867  1.000
  O52  O2-  0.264  0.669  0.067  1.000
  O52  O2-  0.264  0.669  0.267  1.000
  O52  O2-  0.264  0.669  0.467  1.000
  O52  O2-  0.264  0.669  0.667  1.000
  O52  O2-  0.264  0.669  0.867  1.000
  O52  O2-  0.264  0.869  0.067  1.000
  O52  O2-  0.264  0.869  0.267  1.000
  O52  O2-  0.264  0.869  0.467  1.000
  O52  O2-  0.264  0.869  0.667  1.000
  O52  O2-  0.264  0.869  0.867  1.000
  O52  O2-  0.464  0.069  0.067  1.000
  O52  O2-  0.464  0.069  0.267  1.000
  O52  O2-  0.464  0.069  0.467  1.000
  O52  O2-  0.464  0.069  0.667  1.000
  O52  O2-  0.464  0.069  0.867  1.000
  O52  O2-  0.464  0.269  0.067  1.000
  O52  O2-  0.464  0.269  0.267  1.000
  O52  O2-  0.464  0.269  0.467  1.000
  O52  O2-  0.464  0.269  0.667  1.000
  O52  O2-  0.464  0.269  0.867  1.000
  O52  O2-  0.464  0.469  0.067  1.000
  O52  O2-  0.464  0.469  0.267  1.000
  O52  O2-  0.464  0.469  0.467  1.000
  O52  O2-  0.464  0.469  0.667  1.000
  O52  O2-  0.464  0.469  0.867  1.000
  O52  O2-  0.464  0.669  0.067  1.000
  O52  O2-  0.464  0.669  0.267  1.000
  O52  O2-  0.464  0.669  0.467  1.000
  O52  O2-  0.464  0.669  0.667  1.000
  O52  O2-  0.464  0.669  0.867  1.000
  O52  O2-  0.464  0.869  0.067  1.000
  O52  O2-  0.464  0.869  0.267  1.000
  O52  O2-  0.464  0.869  0.467  1.000
  O52  O2-  0.464  0.869  0.667  1.000
  O52  O2-  0.464  0.869  0.867  1.000
  O52  O2-  0.664  0.069  0.067  1.000
  O52  O2-  0.664  0.069  0.267  1.000
  O52  O2-  0.664  0.069  0.467  1.000
  O52  O2-  0.664  0.069  0.667  1.000
  O52  O2-  0.664  0.069  0.867  1.000
  O52  O2-  0.664  0.269  0.067  1.000
  O52  O2-  0.664  0.269  0.267  1.000
  O52  O2-  0.664  0.269  0.467  1.000
  O52  O2-  0.664  0.269  0.667  1.000
  O52  O2-  0.664  0.269  0.867  1.000
  O52  O2-  0.664  0.469  0.067  1.000
  O52  O2-  0.664  0.469  0.267  1.000
  O52  O2-  0.664  0.469  0.467  1.000
  O52  O2-  0.664  0.469  0.667  1.000
  O52  O2-  0.664  0.469  0.867  1.000
  O52  O2-  0.664  0.669  0.067  1.000
  O52  O2-  0.664  0.669  0.267  1.000
  O52  O2-  0.664  0.669  0.467  1.000
  O52  O2-  0.664  0.669  0.667  1.000
  O52  O2-  0.664  0.669  0.867  1.000
  O52  O2-  0.664  0.869  0.067  1.000
  O52  O2-  0.664  0.869  0.267  1.000
  O52  O2-  0.664  0.869  0.467  1.000
  O52  O2-  0.664  0.869  0.667  1.000
  O52  O2-  0.664  0.869  0.867  1.000
  O52  O2-  0.864  0.069  0.067  1.000
  O52  O2-  0.864  0.069  0.267  1.000
  O52  O2-  0.864  0.069  0.467  1.000
  O52  O2-  0.864  0.069  0.667  1.000
  O52  O2-  0.864  0.069  0.867  1.000
  O52  O2-  0.864  0.269  0.067  1.000
  O52  O2-  0.864  0.269  0.267  1.000
  O52  O2-  0.864  0.269  0.467  1.000
  O52  O2-  0.864  0.269  0.667  1.000
  O52  O2-  0.864  0.269  0.867  1.000
  O52  O2-  0.864  0.469  0.067  1.000
  O52  O2-  0.864  0.469  0.267  1.000
  O52  O2-  0.864  0.469  0.467  1.000
  O52  O2-  0.864  0.469  0.667  1.000
  O52  O2-  0.864  0.469  0.867  1.000
  O52  O2-  0.864  0.669  0.067  1.000
  O52  O2-  0.864  0.669  0.267  1.000
  O52  O2-  0.864  0.669  0.467  1.000
  O52  O2-  0.864  0.669  0.667  1.000
  O52  O2-  0.864  0.669  0.867  1.000
  O52  O2-  0.864  0.869  0.067  1.000
  O52  O2-  0.864  0.869  0.267  1.000
  O52  O2-  0.864  0.869  0.467  1.000
  O52  O2-  0.864  0.869  0.667  1.000
  O52  O2-  0.864  0.869  0.867  1.000
  O53  O2-  0.064  0.131  0.133  1.000
  O53  O2-  0.064  0.131  0.333  1.000
  O53  O2-  0.064  0.131  0.533  1.000
  O53  O2-  0.064  0.131  0.733  1.000
  O53  O2-  0.064  0.131  0.933  1.000
  O53  O2-  0.064  0.331  0.133  1.000
  O53  O2-  0.064  0.331  0.333  1.000
  O53  O2-  0.064  0.331  0.533  1.000
  O53  O2-  0.064  0.331  0.733  1.000
  O53  O2-  0.064  0.331  0.933  1.000
  O53  O2-  0.064  0.531  0.133  1.000
  O53  O2-  0.064  0.531  0.333  1.000
  O53  O2-  0.064  0.531  0.533  1.000
  O53  O2-  0.064  0.531  0.733  1.000
  O53  O2-  0.064  0.531  0.933  1.000
  O53  O2-  0.064  0.731  0.133  1.000
  O53  O2-  0.064  0.731  0.333  1.000
  O53  O2-  0.064  0.731  0.533  1.000
  O53  O2-  0.064  0.731  0.733  1.000
  O53  O2-  0.064  0.731  0.933  1.000
  O53  O2-  0.064  0.931  0.133  1.000
  O53  O2-  0.064  0.931  0.333  1.000
  O53  O2-  0.064  0.931  0.533  1.000
  O53  O2-  0.064  0.931  0.733  1.000
  O53  O2-  0.064  0.931  0.933  1.000
  O53  O2-  0.264  0.131  0.133  1.000
  O53  O2-  0.264  0.131  0.333  1.000
  O53  O2-  0.264  0.131  0.533  1.000
  O53  O2-  0.264  0.131  0.733  1.000
  O53  O2-  0.264  0.131  0.933  1.000
  O53  O2-  0.264  0.331  0.133  1.000
  O53  O2-  0.264  0.331  0.333  1.000
  O53  O2-  0.264  0.331  0.533  1.000
  O53  O2-  0.264  0.331  0.733  1.000
  O53  O2-  0.264  0.331  0.933  1.000
  O53  O2-  0.264  0.531  0.133  1.000
  O53  O2-  0.264  0.531  0.333  1.000
  O53  O2-  0.264  0.531  0.533  1.000
  O53  O2-  0.264  0.531  0.733  1.000
  O53  O2-  0.264  0.531  0.933  1.000
  O53  O2-  0.264  0.731  0.133  1.000
  O53  O2-  0.264  0.731  0.333  1.000
  O53  O2-  0.264  0.731  0.533  1.000
  O53  O2-  0.264  0.731  0.733  1.000
  O53  O2-  0.264  0.731  0.933  1.000
  O53  O2-  0.264  0.931  0.133  1.000
  O53  O2-  0.264  0.931  0.333  1.000
  O53  O2-  0.264  0.931  0.533  1.000
  O53  O2-  0.264  0.931  0.733  1.000
  O53  O2-  0.264  0.931  0.933  1.000
  O53  O2-  0.464  0.131  0.133  1.000
  O53  O2-  0.464  0.131  0.333  1.000
  O53  O2-  0.464  0.131  0.533  1.000
  O53  O2-  0.464  0.131  0.733  1.000
  O53  O2-  0.464  0.131  0.933  1.000
  O53  O2-  0.464  0.331  0.133  1.000
  O53  O2-  0.464  0.331  0.333  1.000
  O53  O2-  0.464  0.331  0.533  1.000
  O53  O2-  0.464  0.331  0.733  1.000
  O53  O2-  0.464  0.331  0.933  1.000
  O53  O2-  0.464  0.531  0.133  1.000
  O53  O2-  0.464  0.531  0.333  1.000
  O53  O2-  0.464  0.531  0.533  1.000
  O53  O2-  0.464  0.531  0.733  1.000
  O53  O2-  0.464  0.531  0.933  1.000
  O53  O2-  0.464  0.731  0.133  1.000
  O53  O2-  0.464  0.731  0.333  1.000
  O53  O2-  0.464  0.731  0.533  1.000
  O53  O2-  0.464  0.731  0.733  1.000
  O53  O2-  0.464  0.731  0.933  1.000
  O53  O2-  0.464  0.931  0.133  1.000
  O53  O2-  0.464  0.931  0.333  1.000
  O53  O2-  0.464  0.931  0.533  1.000
  O53  O2-  0.464  0.931  0.733  1.000
  O53  O2-  0.464  0.931  0.933  1.000
  O53  O2-  0.664  0.131  0.133  1.000
  O53  O2-  0.664  0.131  0.333  1.000
  O53  O2-  0.664  0.131  0.533  1.000
  O53  O2-  0.664  0.131  0.733  1.000
  O53  O2-  0.664  0.131  0.933  1.000
  O53  O2-  0.664  0.331  0.133  1.000
  O53  O2-  0.664  0.331  0.333  1.000
  O53  O2-  0.664  0.331  0.533  1.000
  O53  O2-  0.664  0.331  0.733  1.000
  O53  O2-  0.664  0.331  0.933  1.000
  O53  O2-  0.664  0.531  0.133  1.000
  O53  O2-  0.664  0.531  0.333  1.000
  O53  O2-  0.664  0.531  0.533  1.000
  O53  O2-  0.664  0.531  0.733  1.000
  O53  O2-  0.664  0.531  0.933  1.000
  O53  O2-  0.664  0.731  0.133  1.000
  O53  O2-  0.664  0.731  0.333  1.000
  O53  O2-  0.664  0.731  0.533  1.000
  O53  O2-  0.664  0.731  0.733  1.000
  O53  O2-  0.664  0.731  0.933  1.000
  O53  O2-  0.664  0.931  0.133  1.000
  O53  O2-  0.664  0.931  0.333  1.000
  O53  O2-  0.664  0.931  0.533  1.000
  O53  O2-  0.664  0.931  0.733  1.000
  O53  O2-  0.664  0.931  0.933  1.000
  O53  O2-  0.864  0.131  0.133  1.000
  O53  O2-  0.864  0.131  0.333  1.000
  O53  O2-  0.864  0.131  0.533  1.000
  O53  O2-  0.864  0.131  0.733  1.000
  O53  O2-  0.864  0.131  0.933  1.000
  O53  O2-  0.864  0.331  0.133  1.000
  O53  O2-  0.864  0.331  0.333  1.000
  O53  O2-  0.864  0.331  0.533  1.000
  O53  O2-  0.864  0.331  0.733  1.000
  O53  O2-  0.864  0.331  0.933  1.000
  O53  O2-  0.864  0.531  0.133  1.000
  O53  O2-  0.864  0.531  0.333  1.000
  O53  O2-  0.864  0.531  0.533  1.000
  O53  O2-  0.864  0.531  0.733  1.000
  O53  O2-  0.864  0.531  0.933  1.000
  O53  O2-  0.864  0.731  0.133  1.000
  O53  O2-  0.864  0.731  0.333  1.000
  O53  O2-  0.864  0.731  0.533  1.000
  O53  O2-  0.864  0.731  0.733  1.000
  O53  O2-  0.864  0.731  0.933  1.000
  O53  O2-  0.864  0.931  0.133  1.000
  O53  O2-  0.864  0.931  0.333  1.000
  O53  O2-  0.864  0.931  0.533  1.000
  O53  O2-  0.864  0.931  0.733  1.000
  O53  O2-  0.864  0.931  0.933  1.000
  O54  O2-  0.060  0.079  0.185  1.000
  O54  O2-  0.060  0.079  0.385  1.000
  O54  O2-  0.060  0.079  0.585  1.000
  O54  O2-  0.060  0.079  0.785  1.000
  O54  O2-  0.060  0.079  0.985  1.000
  O54  O2-  0.060  0.279  0.185  1.000
  O54  O2-  0.060  0.279  0.385  1.000
  O54  O2-  0.060  0.279  0.585  1.000
  O54  O2-  0.060  0.279  0.785  1.000
  O54  O2-  0.060  0.279  0.985  1.000
  O54  O2-  0.060  0.479  0.185  1.000
  O54  O2-  0.060  0.479  0.385  1.000
  O54  O2-  0.060  0.479  0.585  1.000
  O54  O2-  0.060  0.479  0.785  1.000
  O54  O2-  0.060  0.479  0.985  1.000
  O54  O2-  0.060  0.679  0.185  1.000
  O54  O2-  0.060  0.679  0.385  1.000
  O54  O2-  0.060  0.679  0.585  1.000
  O54  O2-  0.060  0.679  0.785  1.000
  O54  O2-  0.060  0.679  0.985  1.000
  O54  O2-  0.060  0.879  0.185  1.000
  O54  O2-  0.060  0.879  0.385  1.000
  O54  O2-  0.060  0.879  0.585  1.000
  O54  O2-  0.060  0.879  0.785  1.000
  O54  O2-  0.060  0.879  0.985  1.000
  O54  O2-  0.260  0.079  0.185  1.000
  O54  O2-  0.260  0.079  0.385  1.000
  O54  O2-  0.260  0.079  0.585  1.000
  O54  O2-  0.260  0.079  0.785  1.000
  O54  O2-  0.260  0.079  0.985  1.000
  O54  O2-  0.260  0.279  0.185  1.000
  O54  O2-  0.260  0.279  0.385  1.000
  O54  O2-  0.260  0.279  0.585  1.000
  O54  O2-  0.260  0.279  0.785  1.000
  O54  O2-  0.260  0.279  0.985  1.000
  O54  O2-  0.260  0.479  0.185  1.000
  O54  O2-  0.260  0.479  0.385  1.000
  O54  O2-  0.260  0.479  0.585  1.000
  O54  O2-  0.260  0.479  0.785  1.000
  O54  O2-  0.260  0.479  0.985  1.000
  O54  O2-  0.260  0.679  0.185  1.000
  O54  O2-  0.260  0.679  0.385  1.000
  O54  O2-  0.260  0.679  0.585  1.000
  O54  O2-  0.260  0.679  0.785  1.000
  O54  O2-  0.260  0.679  0.985  1.000
  O54  O2-  0.260  0.879  0.185  1.000
  O54  O2-  0.260  0.879  0.385  1.000
  O54  O2-  0.260  0.879  0.585  1.000
  O54  O2-  0.260  0.879  0.785  1.000
  O54  O2-  0.260  0.879  0.985  1.000
  O54  O2-  0.460  0.079  0.185  1.000
  O54  O2-  0.460  0.079  0.385  1.000
  O54  O2-  0.460  0.079  0.585  1.000
  O54  O2-  0.460  0.079  0.785  1.000
  O54  O2-  0.460  0.079  0.985  1.000
  O54  O2-  0.460  0.279  0.185  1.000
  O54  O2-  0.460  0.279  0.385  1.000
  O54  O2-  0.460  0.279  0.585  1.000
  O54  O2-  0.460  0.279  0.785  1.000
  O54  O2-  0.460  0.279  0.985  1.000
  O54  O2-  0.460  0.479  0.185  1.000
  O54  O2-  0.460  0.479  0.385  1.000
  O54  O2-  0.460  0.479  0.585  1.000
  O54  O2-  0.460  0.479  0.785  1.000
  O54  O2-  0.460  0.479  0.985  1.000
  O54  O2-  0.460  0.679  0.185  1.000
  O54  O2-  0.460  0.679  0.385  1.000
  O54  O2-  0.460  0.679  0.585  1.000
  O54  O2-  0.460  0.679  0.785  1.000
  O54  O2-  0.460  0.679  0.985  1.000
  O54  O2-  0.460  0.879  0.185  1.000
  O54  O2-  0.460  0.879  0.385  1.000
  O54  O2-  0.460  0.879  0.585  1.000
  O54  O2-  0.460  0.879  0.785  1.000
  O54  O2-  0.460  0.879  0.985  1.000
  O54  O2-  0.660  0.079  0.185  1.000
  O54  O2-  0.660  0.079  0.385  1.000
  O54  O2-  0.660  0.079  0.585  1.000
  O54  O2-  0.660  0.079  0.785  1.000
  O54  O2-  0.660  0.079  0.985  1.000
  O54  O2-  0.660  0.279  0.185  1.000
  O54  O2-  0.660  0.279  0.385  1.000
  O54  O2-  0.660  0.279  0.585  1.000
  O54  O2-  0.660  0.279  0.785  1.000
  O54  O2-  0.660  0.279  0.985  1.000
  O54  O2-  0.660  0.479  0.185  1.000
  O54  O2-  0.660  0.479  0.385  1.000
  O54  O2-  0.660  0.479  0.585  1.000
  O54  O2-  0.660  0.479  0.785  1.000
  O54  O2-  0.660  0.479  0.985  1.000
  O54  O2-  0.660  0.679  0.185  1.000
  O54  O2-  0.660  0.679  0.385  1.000
  O54  O2-  0.660  0.679  0.585  1.000
  O54  O2-  0.660  0.679  0.785  1.000
  O54  O2-  0.660  0.679  0.985  1.000
  O54  O2-  0.660  0.879  0.185  1.000
  O54  O2-  0.660  0.879  0.385  1.000
  O54  O2-  0.660  0.879  0.585  1.000
  O54  O2-  0.660  0.879  0.785  1.000
  O54  O2-  0.660  0.879  0.985  1.000
  O54  O2-  0.860  0.079  0.185  1.000
  O54  O2-  0.860  0.079  0.385  1.000
  O54  O2-  0.860  0.079  0.585  1.000
  O54  O2-  0.860  0.079  0.785  1.000
  O54  O2-  0.860  0.079  0.985  1.000
  O54  O2-  0.860  0.279  0.185  1.000
  O54  O2-  0.860  0.279  0.385  1.000
  O54  O2-  0.860  0.279  0.585  1.000
  O54  O2-  0.860  0.279  0.785  1.000
  O54  O2-  0.860  0.279  0.985  1.000
  O54  O2-  0.860  0.479  0.185  1.000
  O54  O2-  0.860  0.479  0.385  1.000
  O54  O2-  0.860  0.479  0.585  1.000
  O54  O2-  0.860  0.479  0.785  1.000
  O54  O2-  0.860  0.479  0.985  1.000
  O54  O2-  0.860  0.679  0.185  1.000
  O54  O2-  0.860  0.679  0.385  1.000
  O54  O2-  0.860  0.679  0.585  1.000
  O54  O2-  0.860  0.679  0.785  1.000
  O54  O2-  0.860  0.679  0.985  1.000
  O54  O2-  0.860  0.879  0.185  1.000
  O54  O2-  0.860  0.879  0.385  1.000
  O54  O2-  0.860  0.879  0.585  1.000
  O54  O2-  0.860  0.879  0.785  1.000
  O54  O2-  0.860  0.879  0.985  1.000
  O55  O2-  0.060  0.121  0.015  1.000
  O55  O2-  0.060  0.121  0.215  1.000
  O55  O2-  0.060  0.121  0.415  1.000
  O55  O2-  0.060  0.121  0.615  1.000
  O55  O2-  0.060  0.121  0.815  1.000
  O55  O2-  0.060  0.321  0.015  1.000
  O55  O2-  0.060  0.321  0.215  1.000
  O55  O2-  0.060  0.321  0.415  1.000
  O55  O2-  0.060  0.321  0.615  1.000
  O55  O2-  0.060  0.321  0.815  1.000
  O55  O2-  0.060  0.521  0.015  1.000
  O55  O2-  0.060  0.521  0.215  1.000
  O55  O2-  0.060  0.521  0.415  1.000
  O55  O2-  0.060  0.521  0.615  1.000
  O55  O2-  0.060  0.521  0.815  1.000
  O55  O2-  0.060  0.721  0.015  1.000
  O55  O2-  0.060  0.721  0.215  1.000
  O55  O2-  0.060  0.721  0.415  1.000
  O55  O2-  0.060  0.721  0.615  1.000
  O55  O2-  0.060  0.721  0.815  1.000
  O55  O2-  0.060  0.921  0.015  1.000
  O55  O2-  0.060  0.921  0.215  1.000
  O55  O2-  0.060  0.921  0.415  1.000
  O55  O2-  0.060  0.921  0.615  1.000
  O55  O2-  0.060  0.921  0.815  1.000
  O55  O2-  0.260  0.121  0.015  1.000
  O55  O2-  0.260  0.121  0.215  1.000
  O55  O2-  0.260  0.121  0.415  1.000
  O55  O2-  0.260  0.121  0.615  1.000
  O55  O2-  0.260  0.121  0.815  1.000
  O55  O2-  0.260  0.321  0.015  1.000
  O55  O2-  0.260  0.321  0.215  1.000
  O55  O2-  0.260  0.321  0.415  1.000
  O55  O2-  0.260  0.321  0.615  1.000
  O55  O2-  0.260  0.321  0.815  1.000
  O55  O2-  0.260  0.521  0.015  1.000
  O55  O2-  0.260  0.521  0.215  1.000
  O55  O2-  0.260  0.521  0.415  1.000
  O55  O2-  0.260  0.521  0.615  1.000
  O55  O2-  0.260  0.521  0.815  1.000
  O55  O2-  0.260  0.721  0.015  1.000
  O55  O2-  0.260  0.721  0.215  1.000
  O55  O2-  0.260  0.721  0.415  1.000
  O55  O2-  0.260  0.721  0.615  1.000
  O55  O2-  0.260  0.721  0.815  1.000
  O55  O2-  0.260  0.921  0.015  1.000
  O55  O2-  0.260  0.921  0.215  1.000
  O55  O2-  0.260  0.921  0.415  1.000
  O55  O2-  0.260  0.921  0.615  1.000
  O55  O2-  0.260  0.921  0.815  1.000
  O55  O2-  0.460  0.121  0.015  1.000
  O55  O2-  0.460  0.121  0.215  1.000
  O55  O2-  0.460  0.121  0.415  1.000
  O55  O2-  0.460  0.121  0.615  1.000
  O55  O2-  0.460  0.121  0.815  1.000
  O55  O2-  0.460  0.321  0.015  1.000
  O55  O2-  0.460  0.321  0.215  1.000
  O55  O2-  0.460  0.321  0.415  1.000
  O55  O2-  0.460  0.321  0.615  1.000
  O55  O2-  0.460  0.321  0.815  1.000
  O55  O2-  0.460  0.521  0.015  1.000
  O55  O2-  0.460  0.521  0.215  1.000
  O55  O2-  0.460  0.521  0.415  1.000
  O55  O2-  0.460  0.521  0.615  1.000
  O55  O2-  0.460  0.521  0.815  1.000
  O55  O2-  0.460  0.721  0.015  1.000
  O55  O2-  0.460  0.721  0.215  1.000
  O55  O2-  0.460  0.721  0.415  1.000
  O55  O2-  0.460  0.721  0.615  1.000
  O55  O2-  0.460  0.721  0.815  1.000
  O55  O2-  0.460  0.921  0.015  1.000
  O55  O2-  0.460  0.921  0.215  1.000
  O55  O2-  0.460  0.921  0.415  1.000
  O55  O2-  0.460  0.921  0.615  1.000
  O55  O2-  0.460  0.921  0.815  1.000
  O55  O2-  0.660  0.121  0.015  1.000
  O55  O2-  0.660  0.121  0.215  1.000
  O55  O2-  0.660  0.121  0.415  1.000
  O55  O2-  0.660  0.121  0.615  1.000
  O55  O2-  0.660  0.121  0.815  1.000
  O55  O2-  0.660  0.321  0.015  1.000
  O55  O2-  0.660  0.321  0.215  1.000
  O55  O2-  0.660  0.321  0.415  1.000
  O55  O2-  0.660  0.321  0.615  1.000
  O55  O2-  0.660  0.321  0.815  1.000
  O55  O2-  0.660  0.521  0.015  1.000
  O55  O2-  0.660  0.521  0.215  1.000
  O55  O2-  0.660  0.521  0.415  1.000
  O55  O2-  0.660  0.521  0.615  1.000
  O55  O2-  0.660  0.521  0.815  1.000
  O55  O2-  0.660  0.721  0.015  1.000
  O55  O2-  0.660  0.721  0.215  1.000
  O55  O2-  0.660  0.721  0.415  1.000
  O55  O2-  0.660  0.721  0.615  1.000
  O55  O2-  0.660  0.721  0.815  1.000
  O55  O2-  0.660  0.921  0.015  1.000
  O55  O2-  0.660  0.921  0.215  1.000
  O55  O2-  0.660  0.921  0.415  1.000
  O55  O2-  0.660  0.921  0.615  1.000
  O55  O2-  0.660  0.921  0.815  1.000
  O55  O2-  0.860  0.121  0.015  1.000
  O55  O2-  0.860  0.121  0.215  1.000
  O55  O2-  0.860  0.121  0.415  1.000
  O55  O2-  0.860  0.121  0.615  1.000
  O55  O2-  0.860  0.121  0.815  1.000
  O55  O2-  0.860  0.321  0.015  1.000
  O55  O2-  0.860  0.321  0.215  1.000
  O55  O2-  0.860  0.321  0.415  1.000
  O55  O2-  0.860  0.321  0.615  1.000
  O55  O2-  0.860  0.321  0.815  1.000
  O55  O2-  0.860  0.521  0.015  1.000
  O55  O2-  0.860  0.521  0.215  1.000
  O55  O2-  0.860  0.521  0.415  1.000
  O55  O2-  0.860  0.521  0.615  1.000
  O55  O2-  0.860  0.521  0.815  1.000
  O55  O2-  0.860  0.721  0.015  1.000
  O55  O2-  0.860  0.721  0.215  1.000
  O55  O2-  0.860  0.721  0.415  1.000
  O55  O2-  0.860  0.721  0.615  1.000
  O55  O2-  0.860  0.721  0.815  1.000
  O55  O2-  0.860  0.921  0.015  1.000
  O55  O2-  0.860  0.921  0.215  1.000
  O55  O2-  0.860  0.921  0.415  1.000
  O55  O2-  0.860  0.921  0.615  1.000
  O55  O2-  0.860  0.921  0.815  1.000
  O56  O2-  0.040  0.021  0.015  1.000
  O56  O2-  0.040  0.021  0.215  1.000
  O56  O2-  0.040  0.021  0.415  1.000
  O56  O2-  0.040  0.021  0.615  1.000
  O56  O2-  0.040  0.021  0.815  1.000
  O56  O2-  0.040  0.221  0.015  1.000
  O56  O2-  0.040  0.221  0.215  1.000
  O56  O2-  0.040  0.221  0.415  1.000
  O56  O2-  0.040  0.221  0.615  1.000
  O56  O2-  0.040  0.221  0.815  1.000
  O56  O2-  0.040  0.421  0.015  1.000
  O56  O2-  0.040  0.421  0.215  1.000
  O56  O2-  0.040  0.421  0.415  1.000
  O56  O2-  0.040  0.421  0.615  1.000
  O56  O2-  0.040  0.421  0.815  1.000
  O56  O2-  0.040  0.621  0.015  1.000
  O56  O2-  0.040  0.621  0.215  1.000
  O56  O2-  0.040  0.621  0.415  1.000
  O56  O2-  0.040  0.621  0.615  1.000
  O56  O2-  0.040  0.621  0.815  1.000
  O56  O2-  0.040  0.821  0.015  1.000
  O56  O2-  0.040  0.821  0.215  1.000
  O56  O2-  0.040  0.821  0.415  1.000
  O56  O2-  0.040  0.821  0.615  1.000
  O56  O2-  0.040  0.821  0.815  1.000
  O56  O2-  0.240  0.021  0.015  1.000
  O56  O2-  0.240  0.021  0.215  1.000
  O56  O2-  0.240  0.021  0.415  1.000
  O56  O2-  0.240  0.021  0.615  1.000
  O56  O2-  0.240  0.021  0.815  1.000
  O56  O2-  0.240  0.221  0.015  1.000
  O56  O2-  0.240  0.221  0.215  1.000
  O56  O2-  0.240  0.221  0.415  1.000
  O56  O2-  0.240  0.221  0.615  1.000
  O56  O2-  0.240  0.221  0.815  1.000
  O56  O2-  0.240  0.421  0.015  1.000
  O56  O2-  0.240  0.421  0.215  1.000
  O56  O2-  0.240  0.421  0.415  1.000
  O56  O2-  0.240  0.421  0.615  1.000
  O56  O2-  0.240  0.421  0.815  1.000
  O56  O2-  0.240  0.621  0.015  1.000
  O56  O2-  0.240  0.621  0.215  1.000
  O56  O2-  0.240  0.621  0.415  1.000
  O56  O2-  0.240  0.621  0.615  1.000
  O56  O2-  0.240  0.621  0.815  1.000
  O56  O2-  0.240  0.821  0.015  1.000
  O56  O2-  0.240  0.821  0.215  1.000
  O56  O2-  0.240  0.821  0.415  1.000
  O56  O2-  0.240  0.821  0.615  1.000
  O56  O2-  0.240  0.821  0.815  1.000
  O56  O2-  0.440  0.021  0.015  1.000
  O56  O2-  0.440  0.021  0.215  1.000
  O56  O2-  0.440  0.021  0.415  1.000
  O56  O2-  0.440  0.021  0.615  1.000
  O56  O2-  0.440  0.021  0.815  1.000
  O56  O2-  0.440  0.221  0.015  1.000
  O56  O2-  0.440  0.221  0.215  1.000
  O56  O2-  0.440  0.221  0.415  1.000
  O56  O2-  0.440  0.221  0.615  1.000
  O56  O2-  0.440  0.221  0.815  1.000
  O56  O2-  0.440  0.421  0.015  1.000
  O56  O2-  0.440  0.421  0.215  1.000
  O56  O2-  0.440  0.421  0.415  1.000
  O56  O2-  0.440  0.421  0.615  1.000
  O56  O2-  0.440  0.421  0.815  1.000
  O56  O2-  0.440  0.621  0.015  1.000
  O56  O2-  0.440  0.621  0.215  1.000
  O56  O2-  0.440  0.621  0.415  1.000
  O56  O2-  0.440  0.621  0.615  1.000
  O56  O2-  0.440  0.621  0.815  1.000
  O56  O2-  0.440  0.821  0.015  1.000
  O56  O2-  0.440  0.821  0.215  1.000
  O56  O2-  0.440  0.821  0.415  1.000
  O56  O2-  0.440  0.821  0.615  1.000
  O56  O2-  0.440  0.821  0.815  1.000
  O56  O2-  0.640  0.021  0.015  1.000
  O56  O2-  0.640  0.021  0.215  1.000
  O56  O2-  0.640  0.021  0.415  1.000
  O56  O2-  0.640  0.021  0.615  1.000
  O56  O2-  0.640  0.021  0.815  1.000
  O56  O2-  0.640  0.221  0.015  1.000
  O56  O2-  0.640  0.221  0.215  1.000
  O56  O2-  0.640  0.221  0.415  1.000
  O56  O2-  0.640  0.221  0.615  1.000
  O56  O2-  0.640  0.221  0.815  1.000
  O56  O2-  0.640  0.421  0.015  1.000
  O56  O2-  0.640  0.421  0.215  1.000
  O56  O2-  0.640  0.421  0.415  1.000
  O56  O2-  0.640  0.421  0.615  1.000
  O56  O2-  0.640  0.421  0.815  1.000
  O56  O2-  0.640  0.621  0.015  1.000
  O56  O2-  0.640  0.621  0.215  1.000
  O56  O2-  0.640  0.621  0.415  1.000
  O56  O2-  0.640  0.621  0.615  1.000
  O56  O2-  0.640  0.621  0.815  1.000
  O56  O2-  0.640  0.821  0.015  1.000
  O56  O2-  0.640  0.821  0.215  1.000
  O56  O2-  0.640  0.821  0.415  1.000
  O56  O2-  0.640  0.821  0.615  1.000
  O56  O2-  0.640  0.821  0.815  1.000
  O56  O2-  0.840  0.021  0.015  1.000
  O56  O2-  0.840  0.021  0.215  1.000
  O56  O2-  0.840  0.021  0.415  1.000
  O56  O2-  0.840  0.021  0.615  1.000
  O56  O2-  0.840  0.021  0.815  1.000
  O56  O2-  0.840  0.221  0.015  1.000
  O56  O2-  0.840  0.221  0.215  1.000
  O56  O2-  0.840  0.221  0.415  1.000
  O56  O2-  0.840  0.221  0.615  1.000
  O56  O2-  0.840  0.221  0.815  1.000
  O56  O2-  0.840  0.421  0.015  1.000
  O56  O2-  0.840  0.421  0.215  1.000
  O56  O2-  0.840  0.421  0.415  1.000
  O56  O2-  0.840  0.421  0.615  1.000
  O56  O2-  0.840  0.421  0.815  1.000
  O56  O2-  0.840  0.621  0.015  1.000
  O56  O2-  0.840  0.621  0.215  1.000
  O56  O2-  0.840  0.621  0.415  1.000
  O56  O2-  0.840  0.621  0.615  1.000
  O56  O2-  0.840  0.621  0.815  1.000
  O56  O2-  0.840  0.821  0.015  1.000
  O56  O2-  0.840  0.821  0.215  1.000
  O56  O2-  0.840  0.821  0.415  1.000
  O56  O2-  0.840  0.821  0.615  1.000
  O56  O2-  0.840  0.821  0.815  1.000
  O57  O2-  0.040  0.179  0.185  1.000
  O57  O2-  0.040  0.179  0.385  1.000
  O57  O2-  0.040  0.179  0.585  1.000
  O57  O2-  0.040  0.179  0.785  1.000
  O57  O2-  0.040  0.179  0.985  1.000
  O57  O2-  0.040  0.379  0.185  1.000
  O57  O2-  0.040  0.379  0.385  1.000
  O57  O2-  0.040  0.379  0.585  1.000
  O57  O2-  0.040  0.379  0.785  1.000
  O57  O2-  0.040  0.379  0.985  1.000
  O57  O2-  0.040  0.579  0.185  1.000
  O57  O2-  0.040  0.579  0.385  1.000
  O57  O2-  0.040  0.579  0.585  1.000
  O57  O2-  0.040  0.579  0.785  1.000
  O57  O2-  0.040  0.579  0.985  1.000
  O57  O2-  0.040  0.779  0.185  1.000
  O57  O2-  0.040  0.779  0.385  1.000
  O57  O2-  0.040  0.779  0.585  1.000
  O57  O2-  0.040  0.779  0.785  1.000
  O57  O2-  0.040  0.779  0.985  1.000
  O57  O2-  0.040  0.979  0.185  1.000
  O57  O2-  0.040  0.979  0.385  1.000
  O57  O2-  0.040  0.979  0.585  1.000
  O57  O2-  0.040  0.979  0.785  1.000
  O57  O2-  0.040  0.979  0.985  1.000
  O57  O2-  0.240  0.179  0.185  1.000
  O57  O2-  0.240  0.179  0.385  1.000
  O57  O2-  0.240  0.179  0.585  1.000
  O57  O2-  0.240  0.179  0.785  1.000
  O57  O2-  0.240  0.179  0.985  1.000
  O57  O2-  0.240  0.379  0.185  1.000
  O57  O2-  0.240  0.379  0.385  1.000
  O57  O2-  0.240  0.379  0.585  1.000
  O57  O2-  0.240  0.379  0.785  1.000
  O57  O2-  0.240  0.379  0.985  1.000
  O57  O2-  0.240  0.579  0.185  1.000
  O57  O2-  0.240  0.579  0.385  1.000
  O57  O2-  0.240  0.579  0.585  1.000
  O57  O2-  0.240  0.579  0.785  1.000
  O57  O2-  0.240  0.579  0.985  1.000
  O57  O2-  0.240  0.779  0.185  1.000
  O57  O2-  0.240  0.779  0.385  1.000
  O57  O2-  0.240  0.779  0.585  1.000
  O57  O2-  0.240  0.779  0.785  1.000
  O57  O2-  0.240  0.779  0.985  1.000
  O57  O2-  0.240  0.979  0.185  1.000
  O57  O2-  0.240  0.979  0.385  1.000
  O57  O2-  0.240  0.979  0.585  1.000
  O57  O2-  0.240  0.979  0.785  1.000
  O57  O2-  0.240  0.979  0.985  1.000
  O57  O2-  0.440  0.179  0.185  1.000
  O57  O2-  0.440  0.179  0.385  1.000
  O57  O2-  0.440  0.179  0.585  1.000
  O57  O2-  0.440  0.179  0.785  1.000
  O57  O2-  0.440  0.179  0.985  1.000
  O57  O2-  0.440  0.379  0.185  1.000
  O57  O2-  0.440  0.379  0.385  1.000
  O57  O2-  0.440  0.379  0.585  1.000
  O57  O2-  0.440  0.379  0.785  1.000
  O57  O2-  0.440  0.379  0.985  1.000
  O57  O2-  0.440  0.579  0.185  1.000
  O57  O2-  0.440  0.579  0.385  1.000
  O57  O2-  0.440  0.579  0.585  1.000
  O57  O2-  0.440  0.579  0.785  1.000
  O57  O2-  0.440  0.579  0.985  1.000
  O57  O2-  0.440  0.779  0.185  1.000
  O57  O2-  0.440  0.779  0.385  1.000
  O57  O2-  0.440  0.779  0.585  1.000
  O57  O2-  0.440  0.779  0.785  1.000
  O57  O2-  0.440  0.779  0.985  1.000
  O57  O2-  0.440  0.979  0.185  1.000
  O57  O2-  0.440  0.979  0.385  1.000
  O57  O2-  0.440  0.979  0.585  1.000
  O57  O2-  0.440  0.979  0.785  1.000
  O57  O2-  0.440  0.979  0.985  1.000
  O57  O2-  0.640  0.179  0.185  1.000
  O57  O2-  0.640  0.179  0.385  1.000
  O57  O2-  0.640  0.179  0.585  1.000
  O57  O2-  0.640  0.179  0.785  1.000
  O57  O2-  0.640  0.179  0.985  1.000
  O57  O2-  0.640  0.379  0.185  1.000
  O57  O2-  0.640  0.379  0.385  1.000
  O57  O2-  0.640  0.379  0.585  1.000
  O57  O2-  0.640  0.379  0.785  1.000
  O57  O2-  0.640  0.379  0.985  1.000
  O57  O2-  0.640  0.579  0.185  1.000
  O57  O2-  0.640  0.579  0.385  1.000
  O57  O2-  0.640  0.579  0.585  1.000
  O57  O2-  0.640  0.579  0.785  1.000
  O57  O2-  0.640  0.579  0.985  1.000
  O57  O2-  0.640  0.779  0.185  1.000
  O57  O2-  0.640  0.779  0.385  1.000
  O57  O2-  0.640  0.779  0.585  1.000
  O57  O2-  0.640  0.779  0.785  1.000
  O57  O2-  0.640  0.779  0.985  1.000
  O57  O2-  0.640  0.979  0.185  1.000
  O57  O2-  0.640  0.979  0.385  1.000
  O57  O2-  0.640  0.979  0.585  1.000
  O57  O2-  0.640  0.979  0.785  1.000
  O57  O2-  0.640  0.979  0.985  1.000
  O57  O2-  0.840  0.179  0.185  1.000
  O57  O2-  0.840  0.179  0.385  1.000
  O57  O2-  0.840  0.179  0.585  1.000
  O57  O2-  0.840  0.179  0.785  1.000
  O57  O2-  0.840  0.179  0.985  1.000
  O57  O2-  0.840  0.379  0.185  1.000
  O57  O2-  0.840  0.379  0.385  1.000
  O57  O2-  0.840  0.379  0.585  1.000
  O57  O2-  0.840  0.379  0.785  1.000
  O57  O2-  0.840  0.379  0.985  1.000
  O57  O2-  0.840  0.579  0.185  1.000
  O57  O2-  0.840  0.579  0.385  1.000
  O57  O2-  0.840  0.579  0.585  1.000
  O57  O2-  0.840  0.579  0.785  1.000
  O57  O2-  0.840  0.579  0.985  1.000
  O57  O2-  0.840  0.779  0.185  1.000
  O57  O2-  0.840  0.779  0.385  1.000
  O57  O2-  0.840  0.779  0.585  1.000
  O57  O2-  0.840  0.779  0.785  1.000
  O57  O2-  0.840  0.779  0.985  1.000
  O57  O2-  0.840  0.979  0.185  1.000
  O57  O2-  0.840  0.979  0.385  1.000
  O57  O2-  0.840  0.979  0.585  1.000
  O57  O2-  0.840  0.979  0.785  1.000
  O57  O2-  0.840  0.979  0.985  1.000
  O58  O2-  0.036  0.031  0.133  1.000
  O58  O2-  0.036  0.031  0.333  1.000
  O58  O2-  0.036  0.031  0.533  1.000
  O58  O2-  0.036  0.031  0.733  1.000
  O58  O2-  0.036  0.031  0.933  1.000
  O58  O2-  0.036  0.231  0.133  1.000
  O58  O2-  0.036  0.231  0.333  1.000
  O58  O2-  0.036  0.231  0.533  1.000
  O58  O2-  0.036  0.231  0.733  1.000
  O58  O2-  0.036  0.231  0.933  1.000
  O58  O2-  0.036  0.431  0.133  1.000
  O58  O2-  0.036  0.431  0.333  1.000
  O58  O2-  0.036  0.431  0.533  1.000
  O58  O2-  0.036  0.431  0.733  1.000
  O58  O2-  0.036  0.431  0.933  1.000
  O58  O2-  0.036  0.631  0.133  1.000
  O58  O2-  0.036  0.631  0.333  1.000
  O58  O2-  0.036  0.631  0.533  1.000
  O58  O2-  0.036  0.631  0.733  1.000
  O58  O2-  0.036  0.631  0.933  1.000
  O58  O2-  0.036  0.831  0.133  1.000
  O58  O2-  0.036  0.831  0.333  1.000
  O58  O2-  0.036  0.831  0.533  1.000
  O58  O2-  0.036  0.831  0.733  1.000
  O58  O2-  0.036  0.831  0.933  1.000
  O58  O2-  0.236  0.031  0.133  1.000
  O58  O2-  0.236  0.031  0.333  1.000
  O58  O2-  0.236  0.031  0.533  1.000
  O58  O2-  0.236  0.031  0.733  1.000
  O58  O2-  0.236  0.031  0.933  1.000
  O58  O2-  0.236  0.231  0.133  1.000
  O58  O2-  0.236  0.231  0.333  1.000
  O58  O2-  0.236  0.231  0.533  1.000
  O58  O2-  0.236  0.231  0.733  1.000
  O58  O2-  0.236  0.231  0.933  1.000
  O58  O2-  0.236  0.431  0.133  1.000
  O58  O2-  0.236  0.431  0.333  1.000
  O58  O2-  0.236  0.431  0.533  1.000
  O58  O2-  0.236  0.431  0.733  1.000
  O58  O2-  0.236  0.431  0.933  1.000
  O58  O2-  0.236  0.631  0.133  1.000
  O58  O2-  0.236  0.631  0.333  1.000
  O58  O2-  0.236  0.631  0.533  1.000
  O58  O2-  0.236  0.631  0.733  1.000
  O58  O2-  0.236  0.631  0.933  1.000
  O58  O2-  0.236  0.831  0.133  1.000
  O58  O2-  0.236  0.831  0.333  1.000
  O58  O2-  0.236  0.831  0.533  1.000
  O58  O2-  0.236  0.831  0.733  1.000
  O58  O2-  0.236  0.831  0.933  1.000
  O58  O2-  0.436  0.031  0.133  1.000
  O58  O2-  0.436  0.031  0.333  1.000
  O58  O2-  0.436  0.031  0.533  1.000
  O58  O2-  0.436  0.031  0.733  1.000
  O58  O2-  0.436  0.031  0.933  1.000
  O58  O2-  0.436  0.231  0.133  1.000
  O58  O2-  0.436  0.231  0.333  1.000
  O58  O2-  0.436  0.231  0.533  1.000
  O58  O2-  0.436  0.231  0.733  1.000
  O58  O2-  0.436  0.231  0.933  1.000
  O58  O2-  0.436  0.431  0.133  1.000
  O58  O2-  0.436  0.431  0.333  1.000
  O58  O2-  0.436  0.431  0.533  1.000
  O58  O2-  0.436  0.431  0.733  1.000
  O58  O2-  0.436  0.431  0.933  1.000
  O58  O2-  0.436  0.631  0.133  1.000
  O58  O2-  0.436  0.631  0.333  1.000
  O58  O2-  0.436  0.631  0.533  1.000
  O58  O2-  0.436  0.631  0.733  1.000
  O58  O2-  0.436  0.631  0.933  1.000
  O58  O2-  0.436  0.831  0.133  1.000
  O58  O2-  0.436  0.831  0.333  1.000
  O58  O2-  0.436  0.831  0.533  1.000
  O58  O2-  0.436  0.831  0.733  1.000
  O58  O2-  0.436  0.831  0.933  1.000
  O58  O2-  0.636  0.031  0.133  1.000
  O58  O2-  0.636  0.031  0.333  1.000
  O58  O2-  0.636  0.031  0.533  1.000
  O58  O2-  0.636  0.031  0.733  1.000
  O58  O2-  0.636  0.031  0.933  1.000
  O58  O2-  0.636  0.231  0.133  1.000
  O58  O2-  0.636  0.231  0.333  1.000
  O58  O2-  0.636  0.231  0.533  1.000
  O58  O2-  0.636  0.231  0.733  1.000
  O58  O2-  0.636  0.231  0.933  1.000
  O58  O2-  0.636  0.431  0.133  1.000
  O58  O2-  0.636  0.431  0.333  1.000
  O58  O2-  0.636  0.431  0.533  1.000
  O58  O2-  0.636  0.431  0.733  1.000
  O58  O2-  0.636  0.431  0.933  1.000
  O58  O2-  0.636  0.631  0.133  1.000
  O58  O2-  0.636  0.631  0.333  1.000
  O58  O2-  0.636  0.631  0.533  1.000
  O58  O2-  0.636  0.631  0.733  1.000
  O58  O2-  0.636  0.631  0.933  1.000
  O58  O2-  0.636  0.831  0.133  1.000
  O58  O2-  0.636  0.831  0.333  1.000
  O58  O2-  0.636  0.831  0.533  1.000
  O58  O2-  0.636  0.831  0.733  1.000
  O58  O2-  0.636  0.831  0.933  1.000
  O58  O2-  0.836  0.031  0.133  1.000
  O58  O2-  0.836  0.031  0.333  1.000
  O58  O2-  0.836  0.031  0.533  1.000
  O58  O2-  0.836  0.031  0.733  1.000
  O58  O2-  0.836  0.031  0.933  1.000
  O58  O2-  0.836  0.231  0.133  1.000
  O58  O2-  0.836  0.231  0.333  1.000
  O58  O2-  0.836  0.231  0.533  1.000
  O58  O2-  0.836  0.231  0.733  1.000
  O58  O2-  0.836  0.231  0.933  1.000
  O58  O2-  0.836  0.431  0.133  1.000
  O58  O2-  0.836  0.431  0.333  1.000
  O58  O2-  0.836  0.431  0.533  1.000
  O58  O2-  0.836  0.431  0.733  1.000
  O58  O2-  0.836  0.431  0.933  1.000
  O58  O2-  0.836  0.631  0.133  1.000
  O58  O2-  0.836  0.631  0.333  1.000
  O58  O2-  0.836  0.631  0.533  1.000
  O58  O2-  0.836  0.631  0.733  1.000
  O58  O2-  0.836  0.631  0.933  1.000
  O58  O2-  0.836  0.831  0.133  1.000
  O58  O2-  0.836  0.831  0.333  1.000
  O58  O2-  0.836  0.831  0.533  1.000
  O58  O2-  0.836  0.831  0.733  1.000
  O58  O2-  0.836  0.831  0.933  1.000
  O59  O2-  0.036  0.169  0.067  1.000
  O59  O2-  0.036  0.169  0.267  1.000
  O59  O2-  0.036  0.169  0.467  1.000
  O59  O2-  0.036  0.169  0.667  1.000
  O59  O2-  0.036  0.169  0.867  1.000
  O59  O2-  0.036  0.369  0.067  1.000
  O59  O2-  0.036  0.369  0.267  1.000
  O59  O2-  0.036  0.369  0.467  1.000
  O59  O2-  0.036  0.369  0.667  1.000
  O59  O2-  0.036  0.369  0.867  1.000
  O59  O2-  0.036  0.569  0.067  1.000
  O59  O2-  0.036  0.569  0.267  1.000
  O59  O2-  0.036  0.569  0.467  1.000
  O59  O2-  0.036  0.569  0.667  1.000
  O59  O2-  0.036  0.569  0.867  1.000
  O59  O2-  0.036  0.769  0.067  1.000
  O59  O2-  0.036  0.769  0.267  1.000
  O59  O2-  0.036  0.769  0.467  1.000
  O59  O2-  0.036  0.769  0.667  1.000
  O59  O2-  0.036  0.769  0.867  1.000
  O59  O2-  0.036  0.969  0.067  1.000
  O59  O2-  0.036  0.969  0.267  1.000
  O59  O2-  0.036  0.969  0.467  1.000
  O59  O2-  0.036  0.969  0.667  1.000
  O59  O2-  0.036  0.969  0.867  1.000
  O59  O2-  0.236  0.169  0.067  1.000
  O59  O2-  0.236  0.169  0.267  1.000
  O59  O2-  0.236  0.169  0.467  1.000
  O59  O2-  0.236  0.169  0.667  1.000
  O59  O2-  0.236  0.169  0.867  1.000
  O59  O2-  0.236  0.369  0.067  1.000
  O59  O2-  0.236  0.369  0.267  1.000
  O59  O2-  0.236  0.369  0.467  1.000
  O59  O2-  0.236  0.369  0.667  1.000
  O59  O2-  0.236  0.369  0.867  1.000
  O59  O2-  0.236  0.569  0.067  1.000
  O59  O2-  0.236  0.569  0.267  1.000
  O59  O2-  0.236  0.569  0.467  1.000
  O59  O2-  0.236  0.569  0.667  1.000
  O59  O2-  0.236  0.569  0.867  1.000
  O59  O2-  0.236  0.769  0.067  1.000
  O59  O2-  0.236  0.769  0.267  1.000
  O59  O2-  0.236  0.769  0.467  1.000
  O59  O2-  0.236  0.769  0.667  1.000
  O59  O2-  0.236  0.769  0.867  1.000
  O59  O2-  0.236  0.969  0.067  1.000
  O59  O2-  0.236  0.969  0.267  1.000
  O59  O2-  0.236  0.969  0.467  1.000
  O59  O2-  0.236  0.969  0.667  1.000
  O59  O2-  0.236  0.969  0.867  1.000
  O59  O2-  0.436  0.169  0.067  1.000
  O59  O2-  0.436  0.169  0.267  1.000
  O59  O2-  0.436  0.169  0.467  1.000
  O59  O2-  0.436  0.169  0.667  1.000
  O59  O2-  0.436  0.169  0.867  1.000
  O59  O2-  0.436  0.369  0.067  1.000
  O59  O2-  0.436  0.369  0.267  1.000
  O59  O2-  0.436  0.369  0.467  1.000
  O59  O2-  0.436  0.369  0.667  1.000
  O59  O2-  0.436  0.369  0.867  1.000
  O59  O2-  0.436  0.569  0.067  1.000
  O59  O2-  0.436  0.569  0.267  1.000
  O59  O2-  0.436  0.569  0.467  1.000
  O59  O2-  0.436  0.569  0.667  1.000
  O59  O2-  0.436  0.569  0.867  1.000
  O59  O2-  0.436  0.769  0.067  1.000
  O59  O2-  0.436  0.769  0.267  1.000
  O59  O2-  0.436  0.769  0.467  1.000
  O59  O2-  0.436  0.769  0.667  1.000
  O59  O2-  0.436  0.769  0.867  1.000
  O59  O2-  0.436  0.969  0.067  1.000
  O59  O2-  0.436  0.969  0.267  1.000
  O59  O2-  0.436  0.969  0.467  1.000
  O59  O2-  0.436  0.969  0.667  1.000
  O59  O2-  0.436  0.969  0.867  1.000
  O59  O2-  0.636  0.169  0.067  1.000
  O59  O2-  0.636  0.169  0.267  1.000
  O59  O2-  0.636  0.169  0.467  1.000
  O59  O2-  0.636  0.169  0.667  1.000
  O59  O2-  0.636  0.169  0.867  1.000
  O59  O2-  0.636  0.369  0.067  1.000
  O59  O2-  0.636  0.369  0.267  1.000
  O59  O2-  0.636  0.369  0.467  1.000
  O59  O2-  0.636  0.369  0.667  1.000
  O59  O2-  0.636  0.369  0.867  1.000
  O59  O2-  0.636  0.569  0.067  1.000
  O59  O2-  0.636  0.569  0.267  1.000
  O59  O2-  0.636  0.569  0.467  1.000
  O59  O2-  0.636  0.569  0.667  1.000
  O59  O2-  0.636  0.569  0.867  1.000
  O59  O2-  0.636  0.769  0.067  1.000
  O59  O2-  0.636  0.769  0.267  1.000
  O59  O2-  0.636  0.769  0.467  1.000
  O59  O2-  0.636  0.769  0.667  1.000
  O59  O2-  0.636  0.769  0.867  1.000
  O59  O2-  0.636  0.969  0.067  1.000
  O59  O2-  0.636  0.969  0.267  1.000
  O59  O2-  0.636  0.969  0.467  1.000
  O59  O2-  0.636  0.969  0.667  1.000
  O59  O2-  0.636  0.969  0.867  1.000
  O59  O2-  0.836  0.169  0.067  1.000
  O59  O2-  0.836  0.169  0.267  1.000
  O59  O2-  0.836  0.169  0.467  1.000
  O59  O2-  0.836  0.169  0.667  1.000
  O59  O2-  0.836  0.169  0.867  1.000
  O59  O2-  0.836  0.369  0.067  1.000
  O59  O2-  0.836  0.369  0.267  1.000
  O59  O2-  0.836  0.369  0.467  1.000
  O59  O2-  0.836  0.369  0.667  1.000
  O59  O2-  0.836  0.369  0.867  1.000
  O59  O2-  0.836  0.569  0.067  1.000
  O59  O2-  0.836  0.569  0.267  1.000
  O59  O2-  0.836  0.569  0.467  1.000
  O59  O2-  0.836  0.569  0.667  1.000
  O59  O2-  0.836  0.569  0.867  1.000
  O59  O2-  0.836  0.769  0.067  1.000
  O59  O2-  0.836  0.769  0.267  1.000
  O59  O2-  0.836  0.769  0.467  1.000
  O59  O2-  0.836  0.769  0.667  1.000
  O59  O2-  0.836  0.769  0.867  1.000
  O59  O2-  0.836  0.969  0.067  1.000
  O59  O2-  0.836  0.969  0.267  1.000
  O59  O2-  0.836  0.969  0.467  1.000
  O59  O2-  0.836  0.969  0.667  1.000
  O59  O2-  0.836  0.969  0.867  1.000
  O60  O2-  0.020  0.134  0.106  1.000
  O60  O2-  0.020  0.134  0.306  1.000
  O60  O2-  0.020  0.134  0.506  1.000
  O60  O2-  0.020  0.134  0.706  1.000
  O60  O2-  0.020  0.134  0.906  1.000
  O60  O2-  0.020  0.334  0.106  1.000
  O60  O2-  0.020  0.334  0.306  1.000
  O60  O2-  0.020  0.334  0.506  1.000
  O60  O2-  0.020  0.334  0.706  1.000
  O60  O2-  0.020  0.334  0.906  1.000
  O60  O2-  0.020  0.534  0.106  1.000
  O60  O2-  0.020  0.534  0.306  1.000
  O60  O2-  0.020  0.534  0.506  1.000
  O60  O2-  0.020  0.534  0.706  1.000
  O60  O2-  0.020  0.534  0.906  1.000
  O60  O2-  0.020  0.734  0.106  1.000
  O60  O2-  0.020  0.734  0.306  1.000
  O60  O2-  0.020  0.734  0.506  1.000
  O60  O2-  0.020  0.734  0.706  1.000
  O60  O2-  0.020  0.734  0.906  1.000
  O60  O2-  0.020  0.934  0.106  1.000
  O60  O2-  0.020  0.934  0.306  1.000
  O60  O2-  0.020  0.934  0.506  1.000
  O60  O2-  0.020  0.934  0.706  1.000
  O60  O2-  0.020  0.934  0.906  1.000
  O60  O2-  0.220  0.134  0.106  1.000
  O60  O2-  0.220  0.134  0.306  1.000
  O60  O2-  0.220  0.134  0.506  1.000
  O60  O2-  0.220  0.134  0.706  1.000
  O60  O2-  0.220  0.134  0.906  1.000
  O60  O2-  0.220  0.334  0.106  1.000
  O60  O2-  0.220  0.334  0.306  1.000
  O60  O2-  0.220  0.334  0.506  1.000
  O60  O2-  0.220  0.334  0.706  1.000
  O60  O2-  0.220  0.334  0.906  1.000
  O60  O2-  0.220  0.534  0.106  1.000
  O60  O2-  0.220  0.534  0.306  1.000
  O60  O2-  0.220  0.534  0.506  1.000
  O60  O2-  0.220  0.534  0.706  1.000
  O60  O2-  0.220  0.534  0.906  1.000
  O60  O2-  0.220  0.734  0.106  1.000
  O60  O2-  0.220  0.734  0.306  1.000
  O60  O2-  0.220  0.734  0.506  1.000
  O60  O2-  0.220  0.734  0.706  1.000
  O60  O2-  0.220  0.734  0.906  1.000
  O60  O2-  0.220  0.934  0.106  1.000
  O60  O2-  0.220  0.934  0.306  1.000
  O60  O2-  0.220  0.934  0.506  1.000
  O60  O2-  0.220  0.934  0.706  1.000
  O60  O2-  0.220  0.934  0.906  1.000
  O60  O2-  0.420  0.134  0.106  1.000
  O60  O2-  0.420  0.134  0.306  1.000
  O60  O2-  0.420  0.134  0.506  1.000
  O60  O2-  0.420  0.134  0.706  1.000
  O60  O2-  0.420  0.134  0.906  1.000
  O60  O2-  0.420  0.334  0.106  1.000
  O60  O2-  0.420  0.334  0.306  1.000
  O60  O2-  0.420  0.334  0.506  1.000
  O60  O2-  0.420  0.334  0.706  1.000
  O60  O2-  0.420  0.334  0.906  1.000
  O60  O2-  0.420  0.534  0.106  1.000
  O60  O2-  0.420  0.534  0.306  1.000
  O60  O2-  0.420  0.534  0.506  1.000
  O60  O2-  0.420  0.534  0.706  1.000
  O60  O2-  0.420  0.534  0.906  1.000
  O60  O2-  0.420  0.734  0.106  1.000
  O60  O2-  0.420  0.734  0.306  1.000
  O60  O2-  0.420  0.734  0.506  1.000
  O60  O2-  0.420  0.734  0.706  1.000
  O60  O2-  0.420  0.734  0.906  1.000
  O60  O2-  0.420  0.934  0.106  1.000
  O60  O2-  0.420  0.934  0.306  1.000
  O60  O2-  0.420  0.934  0.506  1.000
  O60  O2-  0.420  0.934  0.706  1.000
  O60  O2-  0.420  0.934  0.906  1.000
  O60  O2-  0.620  0.134  0.106  1.000
  O60  O2-  0.620  0.134  0.306  1.000
  O60  O2-  0.620  0.134  0.506  1.000
  O60  O2-  0.620  0.134  0.706  1.000
  O60  O2-  0.620  0.134  0.906  1.000
  O60  O2-  0.620  0.334  0.106  1.000
  O60  O2-  0.620  0.334  0.306  1.000
  O60  O2-  0.620  0.334  0.506  1.000
  O60  O2-  0.620  0.334  0.706  1.000
  O60  O2-  0.620  0.334  0.906  1.000
  O60  O2-  0.620  0.534  0.106  1.000
  O60  O2-  0.620  0.534  0.306  1.000
  O60  O2-  0.620  0.534  0.506  1.000
  O60  O2-  0.620  0.534  0.706  1.000
  O60  O2-  0.620  0.534  0.906  1.000
  O60  O2-  0.620  0.734  0.106  1.000
  O60  O2-  0.620  0.734  0.306  1.000
  O60  O2-  0.620  0.734  0.506  1.000
  O60  O2-  0.620  0.734  0.706  1.000
  O60  O2-  0.620  0.734  0.906  1.000
  O60  O2-  0.620  0.934  0.106  1.000
  O60  O2-  0.620  0.934  0.306  1.000
  O60  O2-  0.620  0.934  0.506  1.000
  O60  O2-  0.620  0.934  0.706  1.000
  O60  O2-  0.620  0.934  0.906  1.000
  O60  O2-  0.820  0.134  0.106  1.000
  O60  O2-  0.820  0.134  0.306  1.000
  O60  O2-  0.820  0.134  0.506  1.000
  O60  O2-  0.820  0.134  0.706  1.000
  O60  O2-  0.820  0.134  0.906  1.000
  O60  O2-  0.820  0.334  0.106  1.000
  O60  O2-  0.820  0.334  0.306  1.000
  O60  O2-  0.820  0.334  0.506  1.000
  O60  O2-  0.820  0.334  0.706  1.000
  O60  O2-  0.820  0.334  0.906  1.000
  O60  O2-  0.820  0.534  0.106  1.000
  O60  O2-  0.820  0.534  0.306  1.000
  O60  O2-  0.820  0.534  0.506  1.000
  O60  O2-  0.820  0.534  0.706  1.000
  O60  O2-  0.820  0.534  0.906  1.000
  O60  O2-  0.820  0.734  0.106  1.000
  O60  O2-  0.820  0.734  0.306  1.000
  O60  O2-  0.820  0.734  0.506  1.000
  O60  O2-  0.820  0.734  0.706  1.000
  O60  O2-  0.820  0.734  0.906  1.000
  O60  O2-  0.820  0.934  0.106  1.000
  O60  O2-  0.820  0.934  0.306  1.000
  O60  O2-  0.820  0.934  0.506  1.000
  O60  O2-  0.820  0.934  0.706  1.000
  O60  O2-  0.820  0.934  0.906  1.000
  O61  O2-  0.020  0.066  0.094  1.000
  O61  O2-  0.020  0.066  0.294  1.000
  O61  O2-  0.020  0.066  0.494  1.000
  O61  O2-  0.020  0.066  0.694  1.000
  O61  O2-  0.020  0.066  0.894  1.000
  O61  O2-  0.020  0.266  0.094  1.000
  O61  O2-  0.020  0.266  0.294  1.000
  O61  O2-  0.020  0.266  0.494  1.000
  O61  O2-  0.020  0.266  0.694  1.000
  O61  O2-  0.020  0.266  0.894  1.000
  O61  O2-  0.020  0.466  0.094  1.000
  O61  O2-  0.020  0.466  0.294  1.000
  O61  O2-  0.020  0.466  0.494  1.000
  O61  O2-  0.020  0.466  0.694  1.000
  O61  O2-  0.020  0.466  0.894  1.000
  O61  O2-  0.020  0.666  0.094  1.000
  O61  O2-  0.020  0.666  0.294  1.000
  O61  O2-  0.020  0.666  0.494  1.000
  O61  O2-  0.020  0.666  0.694  1.000
  O61  O2-  0.020  0.666  0.894  1.000
  O61  O2-  0.020  0.866  0.094  1.000
  O61  O2-  0.020  0.866  0.294  1.000
  O61  O2-  0.020  0.866  0.494  1.000
  O61  O2-  0.020  0.866  0.694  1.000
  O61  O2-  0.020  0.866  0.894  1.000
  O61  O2-  0.220  0.066  0.094  1.000
  O61  O2-  0.220  0.066  0.294  1.000
  O61  O2-  0.220  0.066  0.494  1.000
  O61  O2-  0.220  0.066  0.694  1.000
  O61  O2-  0.220  0.066  0.894  1.000
  O61  O2-  0.220  0.266  0.094  1.000
  O61  O2-  0.220  0.266  0.294  1.000
  O61  O2-  0.220  0.266  0.494  1.000
  O61  O2-  0.220  0.266  0.694  1.000
  O61  O2-  0.220  0.266  0.894  1.000
  O61  O2-  0.220  0.466  0.094  1.000
  O61  O2-  0.220  0.466  0.294  1.000
  O61  O2-  0.220  0.466  0.494  1.000
  O61  O2-  0.220  0.466  0.694  1.000
  O61  O2-  0.220  0.466  0.894  1.000
  O61  O2-  0.220  0.666  0.094  1.000
  O61  O2-  0.220  0.666  0.294  1.000
  O61  O2-  0.220  0.666  0.494  1.000
  O61  O2-  0.220  0.666  0.694  1.000
  O61  O2-  0.220  0.666  0.894  1.000
  O61  O2-  0.220  0.866  0.094  1.000
  O61  O2-  0.220  0.866  0.294  1.000
  O61  O2-  0.220  0.866  0.494  1.000
  O61  O2-  0.220  0.866  0.694  1.000
  O61  O2-  0.220  0.866  0.894  1.000
  O61  O2-  0.420  0.066  0.094  1.000
  O61  O2-  0.420  0.066  0.294  1.000
  O61  O2-  0.420  0.066  0.494  1.000
  O61  O2-  0.420  0.066  0.694  1.000
  O61  O2-  0.420  0.066  0.894  1.000
  O61  O2-  0.420  0.266  0.094  1.000
  O61  O2-  0.420  0.266  0.294  1.000
  O61  O2-  0.420  0.266  0.494  1.000
  O61  O2-  0.420  0.266  0.694  1.000
  O61  O2-  0.420  0.266  0.894  1.000
  O61  O2-  0.420  0.466  0.094  1.000
  O61  O2-  0.420  0.466  0.294  1.000
  O61  O2-  0.420  0.466  0.494  1.000
  O61  O2-  0.420  0.466  0.694  1.000
  O61  O2-  0.420  0.466  0.894  1.000
  O61  O2-  0.420  0.666  0.094  1.000
  O61  O2-  0.420  0.666  0.294  1.000
  O61  O2-  0.420  0.666  0.494  1.000
  O61  O2-  0.420  0.666  0.694  1.000
  O61  O2-  0.420  0.666  0.894  1.000
  O61  O2-  0.420  0.866  0.094  1.000
  O61  O2-  0.420  0.866  0.294  1.000
  O61  O2-  0.420  0.866  0.494  1.000
  O61  O2-  0.420  0.866  0.694  1.000
  O61  O2-  0.420  0.866  0.894  1.000
  O61  O2-  0.620  0.066  0.094  1.000
  O61  O2-  0.620  0.066  0.294  1.000
  O61  O2-  0.620  0.066  0.494  1.000
  O61  O2-  0.620  0.066  0.694  1.000
  O61  O2-  0.620  0.066  0.894  1.000
  O61  O2-  0.620  0.266  0.094  1.000
  O61  O2-  0.620  0.266  0.294  1.000
  O61  O2-  0.620  0.266  0.494  1.000
  O61  O2-  0.620  0.266  0.694  1.000
  O61  O2-  0.620  0.266  0.894  1.000
  O61  O2-  0.620  0.466  0.094  1.000
  O61  O2-  0.620  0.466  0.294  1.000
  O61  O2-  0.620  0.466  0.494  1.000
  O61  O2-  0.620  0.466  0.694  1.000
  O61  O2-  0.620  0.466  0.894  1.000
  O61  O2-  0.620  0.666  0.094  1.000
  O61  O2-  0.620  0.666  0.294  1.000
  O61  O2-  0.620  0.666  0.494  1.000
  O61  O2-  0.620  0.666  0.694  1.000
  O61  O2-  0.620  0.666  0.894  1.000
  O61  O2-  0.620  0.866  0.094  1.000
  O61  O2-  0.620  0.866  0.294  1.000
  O61  O2-  0.620  0.866  0.494  1.000
  O61  O2-  0.620  0.866  0.694  1.000
  O61  O2-  0.620  0.866  0.894  1.000
  O61  O2-  0.820  0.066  0.094  1.000
  O61  O2-  0.820  0.066  0.294  1.000
  O61  O2-  0.820  0.066  0.494  1.000
  O61  O2-  0.820  0.066  0.694  1.000
  O61  O2-  0.820  0.066  0.894  1.000
  O61  O2-  0.820  0.266  0.094  1.000
  O61  O2-  0.820  0.266  0.294  1.000
  O61  O2-  0.820  0.266  0.494  1.000
  O61  O2-  0.820  0.266  0.694  1.000
  O61  O2-  0.820  0.266  0.894  1.000
  O61  O2-  0.820  0.466  0.094  1.000
  O61  O2-  0.820  0.466  0.294  1.000
  O61  O2-  0.820  0.466  0.494  1.000
  O61  O2-  0.820  0.466  0.694  1.000
  O61  O2-  0.820  0.466  0.894  1.000
  O61  O2-  0.820  0.666  0.094  1.000
  O61  O2-  0.820  0.666  0.294  1.000
  O61  O2-  0.820  0.666  0.494  1.000
  O61  O2-  0.820  0.666  0.694  1.000
  O61  O2-  0.820  0.666  0.894  1.000
  O61  O2-  0.820  0.866  0.094  1.000
  O61  O2-  0.820  0.866  0.294  1.000
  O61  O2-  0.820  0.866  0.494  1.000
  O61  O2-  0.820  0.866  0.694  1.000
  O61  O2-  0.820  0.866  0.894  1.000
  O62  O2-  0.019  0.118  0.184  1.000
  O62  O2-  0.019  0.118  0.384  1.000
  O62  O2-  0.019  0.118  0.584  1.000
  O62  O2-  0.019  0.118  0.784  1.000
  O62  O2-  0.019  0.118  0.984  1.000
  O62  O2-  0.019  0.318  0.184  1.000
  O62  O2-  0.019  0.318  0.384  1.000
  O62  O2-  0.019  0.318  0.584  1.000
  O62  O2-  0.019  0.318  0.784  1.000
  O62  O2-  0.019  0.318  0.984  1.000
  O62  O2-  0.019  0.518  0.184  1.000
  O62  O2-  0.019  0.518  0.384  1.000
  O62  O2-  0.019  0.518  0.584  1.000
  O62  O2-  0.019  0.518  0.784  1.000
  O62  O2-  0.019  0.518  0.984  1.000
  O62  O2-  0.019  0.718  0.184  1.000
  O62  O2-  0.019  0.718  0.384  1.000
  O62  O2-  0.019  0.718  0.584  1.000
  O62  O2-  0.019  0.718  0.784  1.000
  O62  O2-  0.019  0.718  0.984  1.000
  O62  O2-  0.019  0.918  0.184  1.000
  O62  O2-  0.019  0.918  0.384  1.000
  O62  O2-  0.019  0.918  0.584  1.000
  O62  O2-  0.019  0.918  0.784  1.000
  O62  O2-  0.019  0.918  0.984  1.000
  O62  O2-  0.219  0.118  0.184  1.000
  O62  O2-  0.219  0.118  0.384  1.000
  O62  O2-  0.219  0.118  0.584  1.000
  O62  O2-  0.219  0.118  0.784  1.000
  O62  O2-  0.219  0.118  0.984  1.000
  O62  O2-  0.219  0.318  0.184  1.000
  O62  O2-  0.219  0.318  0.384  1.000
  O62  O2-  0.219  0.318  0.584  1.000
  O62  O2-  0.219  0.318  0.784  1.000
  O62  O2-  0.219  0.318  0.984  1.000
  O62  O2-  0.219  0.518  0.184  1.000
  O62  O2-  0.219  0.518  0.384  1.000
  O62  O2-  0.219  0.518  0.584  1.000
  O62  O2-  0.219  0.518  0.784  1.000
  O62  O2-  0.219  0.518  0.984  1.000
  O62  O2-  0.219  0.718  0.184  1.000
  O62  O2-  0.219  0.718  0.384  1.000
  O62  O2-  0.219  0.718  0.584  1.000
  O62  O2-  0.219  0.718  0.784  1.000
  O62  O2-  0.219  0.718  0.984  1.000
  O62  O2-  0.219  0.918  0.184  1.000
  O62  O2-  0.219  0.918  0.384  1.000
  O62  O2-  0.219  0.918  0.584  1.000
  O62  O2-  0.219  0.918  0.784  1.000
  O62  O2-  0.219  0.918  0.984  1.000
  O62  O2-  0.419  0.118  0.184  1.000
  O62  O2-  0.419  0.118  0.384  1.000
  O62  O2-  0.419  0.118  0.584  1.000
  O62  O2-  0.419  0.118  0.784  1.000
  O62  O2-  0.419  0.118  0.984  1.000
  O62  O2-  0.419  0.318  0.184  1.000
  O62  O2-  0.419  0.318  0.384  1.000
  O62  O2-  0.419  0.318  0.584  1.000
  O62  O2-  0.419  0.318  0.784  1.000
  O62  O2-  0.419  0.318  0.984  1.000
  O62  O2-  0.419  0.518  0.184  1.000
  O62  O2-  0.419  0.518  0.384  1.000
  O62  O2-  0.419  0.518  0.584  1.000
  O62  O2-  0.419  0.518  0.784  1.000
  O62  O2-  0.419  0.518  0.984  1.000
  O62  O2-  0.419  0.718  0.184  1.000
  O62  O2-  0.419  0.718  0.384  1.000
  O62  O2-  0.419  0.718  0.584  1.000
  O62  O2-  0.419  0.718  0.784  1.000
  O62  O2-  0.419  0.718  0.984  1.000
  O62  O2-  0.419  0.918  0.184  1.000
  O62  O2-  0.419  0.918  0.384  1.000
  O62  O2-  0.419  0.918  0.584  1.000
  O62  O2-  0.419  0.918  0.784  1.000
  O62  O2-  0.419  0.918  0.984  1.000
  O62  O2-  0.619  0.118  0.184  1.000
  O62  O2-  0.619  0.118  0.384  1.000
  O62  O2-  0.619  0.118  0.584  1.000
  O62  O2-  0.619  0.118  0.784  1.000
  O62  O2-  0.619  0.118  0.984  1.000
  O62  O2-  0.619  0.318  0.184  1.000
  O62  O2-  0.619  0.318  0.384  1.000
  O62  O2-  0.619  0.318  0.584  1.000
  O62  O2-  0.619  0.318  0.784  1.000
  O62  O2-  0.619  0.318  0.984  1.000
  O62  O2-  0.619  0.518  0.184  1.000
  O62  O2-  0.619  0.518  0.384  1.000
  O62  O2-  0.619  0.518  0.584  1.000
  O62  O2-  0.619  0.518  0.784  1.000
  O62  O2-  0.619  0.518  0.984  1.000
  O62  O2-  0.619  0.718  0.184  1.000
  O62  O2-  0.619  0.718  0.384  1.000
  O62  O2-  0.619  0.718  0.584  1.000
  O62  O2-  0.619  0.718  0.784  1.000
  O62  O2-  0.619  0.718  0.984  1.000
  O62  O2-  0.619  0.918  0.184  1.000
  O62  O2-  0.619  0.918  0.384  1.000
  O62  O2-  0.619  0.918  0.584  1.000
  O62  O2-  0.619  0.918  0.784  1.000
  O62  O2-  0.619  0.918  0.984  1.000
  O62  O2-  0.819  0.118  0.184  1.000
  O62  O2-  0.819  0.118  0.384  1.000
  O62  O2-  0.819  0.118  0.584  1.000
  O62  O2-  0.819  0.118  0.784  1.000
  O62  O2-  0.819  0.118  0.984  1.000
  O62  O2-  0.819  0.318  0.184  1.000
  O62  O2-  0.819  0.318  0.384  1.000
  O62  O2-  0.819  0.318  0.584  1.000
  O62  O2-  0.819  0.318  0.784  1.000
  O62  O2-  0.819  0.318  0.984  1.000
  O62  O2-  0.819  0.518  0.184  1.000
  O62  O2-  0.819  0.518  0.384  1.000
  O62  O2-  0.819  0.518  0.584  1.000
  O62  O2-  0.819  0.518  0.784  1.000
  O62  O2-  0.819  0.518  0.984  1.000
  O62  O2-  0.819  0.718  0.184  1.000
  O62  O2-  0.819  0.718  0.384  1.000
  O62  O2-  0.819  0.718  0.584  1.000
  O62  O2-  0.819  0.718  0.784  1.000
  O62  O2-  0.819  0.718  0.984  1.000
  O62  O2-  0.819  0.918  0.184  1.000
  O62  O2-  0.819  0.918  0.384  1.000
  O62  O2-  0.819  0.918  0.584  1.000
  O62  O2-  0.819  0.918  0.784  1.000
  O62  O2-  0.819  0.918  0.984  1.000
  O63  O2-  0.019  0.082  0.016  1.000
  O63  O2-  0.019  0.082  0.216  1.000
  O63  O2-  0.019  0.082  0.416  1.000
  O63  O2-  0.019  0.082  0.616  1.000
  O63  O2-  0.019  0.082  0.816  1.000
  O63  O2-  0.019  0.282  0.016  1.000
  O63  O2-  0.019  0.282  0.216  1.000
  O63  O2-  0.019  0.282  0.416  1.000
  O63  O2-  0.019  0.282  0.616  1.000
  O63  O2-  0.019  0.282  0.816  1.000
  O63  O2-  0.019  0.482  0.016  1.000
  O63  O2-  0.019  0.482  0.216  1.000
  O63  O2-  0.019  0.482  0.416  1.000
  O63  O2-  0.019  0.482  0.616  1.000
  O63  O2-  0.019  0.482  0.816  1.000
  O63  O2-  0.019  0.682  0.016  1.000
  O63  O2-  0.019  0.682  0.216  1.000
  O63  O2-  0.019  0.682  0.416  1.000
  O63  O2-  0.019  0.682  0.616  1.000
  O63  O2-  0.019  0.682  0.816  1.000
  O63  O2-  0.019  0.882  0.016  1.000
  O63  O2-  0.019  0.882  0.216  1.000
  O63  O2-  0.019  0.882  0.416  1.000
  O63  O2-  0.019  0.882  0.616  1.000
  O63  O2-  0.019  0.882  0.816  1.000
  O63  O2-  0.219  0.082  0.016  1.000
  O63  O2-  0.219  0.082  0.216  1.000
  O63  O2-  0.219  0.082  0.416  1.000
  O63  O2-  0.219  0.082  0.616  1.000
  O63  O2-  0.219  0.082  0.816  1.000
  O63  O2-  0.219  0.282  0.016  1.000
  O63  O2-  0.219  0.282  0.216  1.000
  O63  O2-  0.219  0.282  0.416  1.000
  O63  O2-  0.219  0.282  0.616  1.000
  O63  O2-  0.219  0.282  0.816  1.000
  O63  O2-  0.219  0.482  0.016  1.000
  O63  O2-  0.219  0.482  0.216  1.000
  O63  O2-  0.219  0.482  0.416  1.000
  O63  O2-  0.219  0.482  0.616  1.000
  O63  O2-  0.219  0.482  0.816  1.000
  O63  O2-  0.219  0.682  0.016  1.000
  O63  O2-  0.219  0.682  0.216  1.000
  O63  O2-  0.219  0.682  0.416  1.000
  O63  O2-  0.219  0.682  0.616  1.000
  O63  O2-  0.219  0.682  0.816  1.000
  O63  O2-  0.219  0.882  0.016  1.000
  O63  O2-  0.219  0.882  0.216  1.000
  O63  O2-  0.219  0.882  0.416  1.000
  O63  O2-  0.219  0.882  0.616  1.000
  O63  O2-  0.219  0.882  0.816  1.000
  O63  O2-  0.419  0.082  0.016  1.000
  O63  O2-  0.419  0.082  0.216  1.000
  O63  O2-  0.419  0.082  0.416  1.000
  O63  O2-  0.419  0.082  0.616  1.000
  O63  O2-  0.419  0.082  0.816  1.000
  O63  O2-  0.419  0.282  0.016  1.000
  O63  O2-  0.419  0.282  0.216  1.000
  O63  O2-  0.419  0.282  0.416  1.000
  O63  O2-  0.419  0.282  0.616  1.000
  O63  O2-  0.419  0.282  0.816  1.000
  O63  O2-  0.419  0.482  0.016  1.000
  O63  O2-  0.419  0.482  0.216  1.000
  O63  O2-  0.419  0.482  0.416  1.000
  O63  O2-  0.419  0.482  0.616  1.000
  O63  O2-  0.419  0.482  0.816  1.000
  O63  O2-  0.419  0.682  0.016  1.000
  O63  O2-  0.419  0.682  0.216  1.000
  O63  O2-  0.419  0.682  0.416  1.000
  O63  O2-  0.419  0.682  0.616  1.000
  O63  O2-  0.419  0.682  0.816  1.000
  O63  O2-  0.419  0.882  0.016  1.000
  O63  O2-  0.419  0.882  0.216  1.000
  O63  O2-  0.419  0.882  0.416  1.000
  O63  O2-  0.419  0.882  0.616  1.000
  O63  O2-  0.419  0.882  0.816  1.000
  O63  O2-  0.619  0.082  0.016  1.000
  O63  O2-  0.619  0.082  0.216  1.000
  O63  O2-  0.619  0.082  0.416  1.000
  O63  O2-  0.619  0.082  0.616  1.000
  O63  O2-  0.619  0.082  0.816  1.000
  O63  O2-  0.619  0.282  0.016  1.000
  O63  O2-  0.619  0.282  0.216  1.000
  O63  O2-  0.619  0.282  0.416  1.000
  O63  O2-  0.619  0.282  0.616  1.000
  O63  O2-  0.619  0.282  0.816  1.000
  O63  O2-  0.619  0.482  0.016  1.000
  O63  O2-  0.619  0.482  0.216  1.000
  O63  O2-  0.619  0.482  0.416  1.000
  O63  O2-  0.619  0.482  0.616  1.000
  O63  O2-  0.619  0.482  0.816  1.000
  O63  O2-  0.619  0.682  0.016  1.000
  O63  O2-  0.619  0.682  0.216  1.000
  O63  O2-  0.619  0.682  0.416  1.000
  O63  O2-  0.619  0.682  0.616  1.000
  O63  O2-  0.619  0.682  0.816  1.000
  O63  O2-  0.619  0.882  0.016  1.000
  O63  O2-  0.619  0.882  0.216  1.000
  O63  O2-  0.619  0.882  0.416  1.000
  O63  O2-  0.619  0.882  0.616  1.000
  O63  O2-  0.619  0.882  0.816  1.000
  O63  O2-  0.819  0.082  0.016  1.000
  O63  O2-  0.819  0.082  0.216  1.000
  O63  O2-  0.819  0.082  0.416  1.000
  O63  O2-  0.819  0.082  0.616  1.000
  O63  O2-  0.819  0.082  0.816  1.000
  O63  O2-  0.819  0.282  0.016  1.000
  O63  O2-  0.819  0.282  0.216  1.000
  O63  O2-  0.819  0.282  0.416  1.000
  O63  O2-  0.819  0.282  0.616  1.000
  O63  O2-  0.819  0.282  0.816  1.000
  O63  O2-  0.819  0.482  0.016  1.000
  O63  O2-  0.819  0.482  0.216  1.000
  O63  O2-  0.819  0.482  0.416  1.000
  O63  O2-  0.819  0.482  0.616  1.000
  O63  O2-  0.819  0.482  0.816  1.000
  O63  O2-  0.819  0.682  0.016  1.000
  O63  O2-  0.819  0.682  0.216  1.000
  O63  O2-  0.819  0.682  0.416  1.000
  O63  O2-  0.819  0.682  0.616  1.000
  O63  O2-  0.819  0.682  0.816  1.000
  O63  O2-  0.819  0.882  0.016  1.000
  O63  O2-  0.819  0.882  0.216  1.000
  O63  O2-  0.819  0.882  0.416  1.000
  O63  O2-  0.819  0.882  0.616  1.000
  O63  O2-  0.819  0.882  0.816  1.000
  O64  O2-  0.019  0.103  0.062  1.000
  O64  O2-  0.019  0.103  0.262  1.000
  O64  O2-  0.019  0.103  0.462  1.000
  O64  O2-  0.019  0.103  0.662  1.000
  O64  O2-  0.019  0.103  0.862  1.000
  O64  O2-  0.019  0.303  0.062  1.000
  O64  O2-  0.019  0.303  0.262  1.000
  O64  O2-  0.019  0.303  0.462  1.000
  O64  O2-  0.019  0.303  0.662  1.000
  O64  O2-  0.019  0.303  0.862  1.000
  O64  O2-  0.019  0.503  0.062  1.000
  O64  O2-  0.019  0.503  0.262  1.000
  O64  O2-  0.019  0.503  0.462  1.000
  O64  O2-  0.019  0.503  0.662  1.000
  O64  O2-  0.019  0.503  0.862  1.000
  O64  O2-  0.019  0.703  0.062  1.000
  O64  O2-  0.019  0.703  0.262  1.000
  O64  O2-  0.019  0.703  0.462  1.000
  O64  O2-  0.019  0.703  0.662  1.000
  O64  O2-  0.019  0.703  0.862  1.000
  O64  O2-  0.019  0.903  0.062  1.000
  O64  O2-  0.019  0.903  0.262  1.000
  O64  O2-  0.019  0.903  0.462  1.000
  O64  O2-  0.019  0.903  0.662  1.000
  O64  O2-  0.019  0.903  0.862  1.000
  O64  O2-  0.219  0.103  0.062  1.000
  O64  O2-  0.219  0.103  0.262  1.000
  O64  O2-  0.219  0.103  0.462  1.000
  O64  O2-  0.219  0.103  0.662  1.000
  O64  O2-  0.219  0.103  0.862  1.000
  O64  O2-  0.219  0.303  0.062  1.000
  O64  O2-  0.219  0.303  0.262  1.000
  O64  O2-  0.219  0.303  0.462  1.000
  O64  O2-  0.219  0.303  0.662  1.000
  O64  O2-  0.219  0.303  0.862  1.000
  O64  O2-  0.219  0.503  0.062  1.000
  O64  O2-  0.219  0.503  0.262  1.000
  O64  O2-  0.219  0.503  0.462  1.000
  O64  O2-  0.219  0.503  0.662  1.000
  O64  O2-  0.219  0.503  0.862  1.000
  O64  O2-  0.219  0.703  0.062  1.000
  O64  O2-  0.219  0.703  0.262  1.000
  O64  O2-  0.219  0.703  0.462  1.000
  O64  O2-  0.219  0.703  0.662  1.000
  O64  O2-  0.219  0.703  0.862  1.000
  O64  O2-  0.219  0.903  0.062  1.000
  O64  O2-  0.219  0.903  0.262  1.000
  O64  O2-  0.219  0.903  0.462  1.000
  O64  O2-  0.219  0.903  0.662  1.000
  O64  O2-  0.219  0.903  0.862  1.000
  O64  O2-  0.419  0.103  0.062  1.000
  O64  O2-  0.419  0.103  0.262  1.000
  O64  O2-  0.419  0.103  0.462  1.000
  O64  O2-  0.419  0.103  0.662  1.000
  O64  O2-  0.419  0.103  0.862  1.000
  O64  O2-  0.419  0.303  0.062  1.000
  O64  O2-  0.419  0.303  0.262  1.000
  O64  O2-  0.419  0.303  0.462  1.000
  O64  O2-  0.419  0.303  0.662  1.000
  O64  O2-  0.419  0.303  0.862  1.000
  O64  O2-  0.419  0.503  0.062  1.000
  O64  O2-  0.419  0.503  0.262  1.000
  O64  O2-  0.419  0.503  0.462  1.000
  O64  O2-  0.419  0.503  0.662  1.000
  O64  O2-  0.419  0.503  0.862  1.000
  O64  O2-  0.419  0.703  0.062  1.000
  O64  O2-  0.419  0.703  0.262  1.000
  O64  O2-  0.419  0.703  0.462  1.000
  O64  O2-  0.419  0.703  0.662  1.000
  O64  O2-  0.419  0.703  0.862  1.000
  O64  O2-  0.419  0.903  0.062  1.000
  O64  O2-  0.419  0.903  0.262  1.000
  O64  O2-  0.419  0.903  0.462  1.000
  O64  O2-  0.419  0.903  0.662  1.000
  O64  O2-  0.419  0.903  0.862  1.000
  O64  O2-  0.619  0.103  0.062  1.000
  O64  O2-  0.619  0.103  0.262  1.000
  O64  O2-  0.619  0.103  0.462  1.000
  O64  O2-  0.619  0.103  0.662  1.000
  O64  O2-  0.619  0.103  0.862  1.000
  O64  O2-  0.619  0.303  0.062  1.000
  O64  O2-  0.619  0.303  0.262  1.000
  O64  O2-  0.619  0.303  0.462  1.000
  O64  O2-  0.619  0.303  0.662  1.000
  O64  O2-  0.619  0.303  0.862  1.000
  O64  O2-  0.619  0.503  0.062  1.000
  O64  O2-  0.619  0.503  0.262  1.000
  O64  O2-  0.619  0.503  0.462  1.000
  O64  O2-  0.619  0.503  0.662  1.000
  O64  O2-  0.619  0.503  0.862  1.000
  O64  O2-  0.619  0.703  0.062  1.000
  O64  O2-  0.619  0.703  0.262  1.000
  O64  O2-  0.619  0.703  0.462  1.000
  O64  O2-  0.619  0.703  0.662  1.000
  O64  O2-  0.619  0.703  0.862  1.000
  O64  O2-  0.619  0.903  0.062  1.000
  O64  O2-  0.619  0.903  0.262  1.000
  O64  O2-  0.619  0.903  0.462  1.000
  O64  O2-  0.619  0.903  0.662  1.000
  O64  O2-  0.619  0.903  0.862  1.000
  O64  O2-  0.819  0.103  0.062  1.000
  O64  O2-  0.819  0.103  0.262  1.000
  O64  O2-  0.819  0.103  0.462  1.000
  O64  O2-  0.819  0.103  0.662  1.000
  O64  O2-  0.819  0.103  0.862  1.000
  O64  O2-  0.819  0.303  0.062  1.000
  O64  O2-  0.819  0.303  0.262  1.000
  O64  O2-  0.819  0.303  0.462  1.000
  O64  O2-  0.819  0.303  0.662  1.000
  O64  O2-  0.819  0.303  0.862  1.000
  O64  O2-  0.819  0.503  0.062  1.000
  O64  O2-  0.819  0.503  0.262  1.000
  O64  O2-  0.819  0.503  0.462  1.000
  O64  O2-  0.819  0.503  0.662  1.000
  O64  O2-  0.819  0.503  0.862  1.000
  O64  O2-  0.819  0.703  0.062  1.000
  O64  O2-  0.819  0.703  0.262  1.000
  O64  O2-  0.819  0.703  0.462  1.000
  O64  O2-  0.819  0.703  0.662  1.000
  O64  O2-  0.819  0.703  0.862  1.000
  O64  O2-  0.819  0.903  0.062  1.000
  O64  O2-  0.819  0.903  0.262  1.000
  O64  O2-  0.819  0.903  0.462  1.000
  O64  O2-  0.819  0.903  0.662  1.000
  O64  O2-  0.819  0.903  0.862  1.000
  O65  O2-  0.019  0.097  0.138  1.000
  O65  O2-  0.019  0.097  0.338  1.000
  O65  O2-  0.019  0.097  0.538  1.000
  O65  O2-  0.019  0.097  0.738  1.000
  O65  O2-  0.019  0.097  0.938  1.000
  O65  O2-  0.019  0.297  0.138  1.000
  O65  O2-  0.019  0.297  0.338  1.000
  O65  O2-  0.019  0.297  0.538  1.000
  O65  O2-  0.019  0.297  0.738  1.000
  O65  O2-  0.019  0.297  0.938  1.000
  O65  O2-  0.019  0.497  0.138  1.000
  O65  O2-  0.019  0.497  0.338  1.000
  O65  O2-  0.019  0.497  0.538  1.000
  O65  O2-  0.019  0.497  0.738  1.000
  O65  O2-  0.019  0.497  0.938  1.000
  O65  O2-  0.019  0.697  0.138  1.000
  O65  O2-  0.019  0.697  0.338  1.000
  O65  O2-  0.019  0.697  0.538  1.000
  O65  O2-  0.019  0.697  0.738  1.000
  O65  O2-  0.019  0.697  0.938  1.000
  O65  O2-  0.019  0.897  0.138  1.000
  O65  O2-  0.019  0.897  0.338  1.000
  O65  O2-  0.019  0.897  0.538  1.000
  O65  O2-  0.019  0.897  0.738  1.000
  O65  O2-  0.019  0.897  0.938  1.000
  O65  O2-  0.219  0.097  0.138  1.000
  O65  O2-  0.219  0.097  0.338  1.000
  O65  O2-  0.219  0.097  0.538  1.000
  O65  O2-  0.219  0.097  0.738  1.000
  O65  O2-  0.219  0.097  0.938  1.000
  O65  O2-  0.219  0.297  0.138  1.000
  O65  O2-  0.219  0.297  0.338  1.000
  O65  O2-  0.219  0.297  0.538  1.000
  O65  O2-  0.219  0.297  0.738  1.000
  O65  O2-  0.219  0.297  0.938  1.000
  O65  O2-  0.219  0.497  0.138  1.000
  O65  O2-  0.219  0.497  0.338  1.000
  O65  O2-  0.219  0.497  0.538  1.000
  O65  O2-  0.219  0.497  0.738  1.000
  O65  O2-  0.219  0.497  0.938  1.000
  O65  O2-  0.219  0.697  0.138  1.000
  O65  O2-  0.219  0.697  0.338  1.000
  O65  O2-  0.219  0.697  0.538  1.000
  O65  O2-  0.219  0.697  0.738  1.000
  O65  O2-  0.219  0.697  0.938  1.000
  O65  O2-  0.219  0.897  0.138  1.000
  O65  O2-  0.219  0.897  0.338  1.000
  O65  O2-  0.219  0.897  0.538  1.000
  O65  O2-  0.219  0.897  0.738  1.000
  O65  O2-  0.219  0.897  0.938  1.000
  O65  O2-  0.419  0.097  0.138  1.000
  O65  O2-  0.419  0.097  0.338  1.000
  O65  O2-  0.419  0.097  0.538  1.000
  O65  O2-  0.419  0.097  0.738  1.000
  O65  O2-  0.419  0.097  0.938  1.000
  O65  O2-  0.419  0.297  0.138  1.000
  O65  O2-  0.419  0.297  0.338  1.000
  O65  O2-  0.419  0.297  0.538  1.000
  O65  O2-  0.419  0.297  0.738  1.000
  O65  O2-  0.419  0.297  0.938  1.000
  O65  O2-  0.419  0.497  0.138  1.000
  O65  O2-  0.419  0.497  0.338  1.000
  O65  O2-  0.419  0.497  0.538  1.000
  O65  O2-  0.419  0.497  0.738  1.000
  O65  O2-  0.419  0.497  0.938  1.000
  O65  O2-  0.419  0.697  0.138  1.000
  O65  O2-  0.419  0.697  0.338  1.000
  O65  O2-  0.419  0.697  0.538  1.000
  O65  O2-  0.419  0.697  0.738  1.000
  O65  O2-  0.419  0.697  0.938  1.000
  O65  O2-  0.419  0.897  0.138  1.000
  O65  O2-  0.419  0.897  0.338  1.000
  O65  O2-  0.419  0.897  0.538  1.000
  O65  O2-  0.419  0.897  0.738  1.000
  O65  O2-  0.419  0.897  0.938  1.000
  O65  O2-  0.619  0.097  0.138  1.000
  O65  O2-  0.619  0.097  0.338  1.000
  O65  O2-  0.619  0.097  0.538  1.000
  O65  O2-  0.619  0.097  0.738  1.000
  O65  O2-  0.619  0.097  0.938  1.000
  O65  O2-  0.619  0.297  0.138  1.000
  O65  O2-  0.619  0.297  0.338  1.000
  O65  O2-  0.619  0.297  0.538  1.000
  O65  O2-  0.619  0.297  0.738  1.000
  O65  O2-  0.619  0.297  0.938  1.000
  O65  O2-  0.619  0.497  0.138  1.000
  O65  O2-  0.619  0.497  0.338  1.000
  O65  O2-  0.619  0.497  0.538  1.000
  O65  O2-  0.619  0.497  0.738  1.000
  O65  O2-  0.619  0.497  0.938  1.000
  O65  O2-  0.619  0.697  0.138  1.000
  O65  O2-  0.619  0.697  0.338  1.000
  O65  O2-  0.619  0.697  0.538  1.000
  O65  O2-  0.619  0.697  0.738  1.000
  O65  O2-  0.619  0.697  0.938  1.000
  O65  O2-  0.619  0.897  0.138  1.000
  O65  O2-  0.619  0.897  0.338  1.000
  O65  O2-  0.619  0.897  0.538  1.000
  O65  O2-  0.619  0.897  0.738  1.000
  O65  O2-  0.619  0.897  0.938  1.000
  O65  O2-  0.819  0.097  0.138  1.000
  O65  O2-  0.819  0.097  0.338  1.000
  O65  O2-  0.819  0.097  0.538  1.000
  O65  O2-  0.819  0.097  0.738  1.000
  O65  O2-  0.819  0.097  0.938  1.000
  O65  O2-  0.819  0.297  0.138  1.000
  O65  O2-  0.819  0.297  0.338  1.000
  O65  O2-  0.819  0.297  0.538  1.000
  O65  O2-  0.819  0.297  0.738  1.000
  O65  O2-  0.819  0.297  0.938  1.000
  O65  O2-  0.819  0.497  0.138  1.000
  O65  O2-  0.819  0.497  0.338  1.000
  O65  O2-  0.819  0.497  0.538  1.000
  O65  O2-  0.819  0.497  0.738  1.000
  O65  O2-  0.819  0.497  0.938  1.000
  O65  O2-  0.819  0.697  0.138  1.000
  O65  O2-  0.819  0.697  0.338  1.000
  O65  O2-  0.819  0.697  0.538  1.000
  O65  O2-  0.819  0.697  0.738  1.000
  O65  O2-  0.819  0.697  0.938  1.000
  O65  O2-  0.819  0.897  0.138  1.000
  O65  O2-  0.819  0.897  0.338  1.000
  O65  O2-  0.819  0.897  0.538  1.000
  O65  O2-  0.819  0.897  0.738  1.000
  O65  O2-  0.819  0.897  0.938  1.000
  O66  O2-  0.013  0.154  0.144  1.000
  O66  O2-  0.013  0.154  0.344  1.000
  O66  O2-  0.013  0.154  0.544  1.000
  O66  O2-  0.013  0.154  0.744  1.000
  O66  O2-  0.013  0.154  0.944  1.000
  O66  O2-  0.013  0.354  0.144  1.000
  O66  O2-  0.013  0.354  0.344  1.000
  O66  O2-  0.013  0.354  0.544  1.000
  O66  O2-  0.013  0.354  0.744  1.000
  O66  O2-  0.013  0.354  0.944  1.000
  O66  O2-  0.013  0.554  0.144  1.000
  O66  O2-  0.013  0.554  0.344  1.000
  O66  O2-  0.013  0.554  0.544  1.000
  O66  O2-  0.013  0.554  0.744  1.000
  O66  O2-  0.013  0.554  0.944  1.000
  O66  O2-  0.013  0.754  0.144  1.000
  O66  O2-  0.013  0.754  0.344  1.000
  O66  O2-  0.013  0.754  0.544  1.000
  O66  O2-  0.013  0.754  0.744  1.000
  O66  O2-  0.013  0.754  0.944  1.000
  O66  O2-  0.013  0.954  0.144  1.000
  O66  O2-  0.013  0.954  0.344  1.000
  O66  O2-  0.013  0.954  0.544  1.000
  O66  O2-  0.013  0.954  0.744  1.000
  O66  O2-  0.013  0.954  0.944  1.000
  O66  O2-  0.213  0.154  0.144  1.000
  O66  O2-  0.213  0.154  0.344  1.000
  O66  O2-  0.213  0.154  0.544  1.000
  O66  O2-  0.213  0.154  0.744  1.000
  O66  O2-  0.213  0.154  0.944  1.000
  O66  O2-  0.213  0.354  0.144  1.000
  O66  O2-  0.213  0.354  0.344  1.000
  O66  O2-  0.213  0.354  0.544  1.000
  O66  O2-  0.213  0.354  0.744  1.000
  O66  O2-  0.213  0.354  0.944  1.000
  O66  O2-  0.213  0.554  0.144  1.000
  O66  O2-  0.213  0.554  0.344  1.000
  O66  O2-  0.213  0.554  0.544  1.000
  O66  O2-  0.213  0.554  0.744  1.000
  O66  O2-  0.213  0.554  0.944  1.000
  O66  O2-  0.213  0.754  0.144  1.000
  O66  O2-  0.213  0.754  0.344  1.000
  O66  O2-  0.213  0.754  0.544  1.000
  O66  O2-  0.213  0.754  0.744  1.000
  O66  O2-  0.213  0.754  0.944  1.000
  O66  O2-  0.213  0.954  0.144  1.000
  O66  O2-  0.213  0.954  0.344  1.000
  O66  O2-  0.213  0.954  0.544  1.000
  O66  O2-  0.213  0.954  0.744  1.000
  O66  O2-  0.213  0.954  0.944  1.000
  O66  O2-  0.413  0.154  0.144  1.000
  O66  O2-  0.413  0.154  0.344  1.000
  O66  O2-  0.413  0.154  0.544  1.000
  O66  O2-  0.413  0.154  0.744  1.000
  O66  O2-  0.413  0.154  0.944  1.000
  O66  O2-  0.413  0.354  0.144  1.000
  O66  O2-  0.413  0.354  0.344  1.000
  O66  O2-  0.413  0.354  0.544  1.000
  O66  O2-  0.413  0.354  0.744  1.000
  O66  O2-  0.413  0.354  0.944  1.000
  O66  O2-  0.413  0.554  0.144  1.000
  O66  O2-  0.413  0.554  0.344  1.000
  O66  O2-  0.413  0.554  0.544  1.000
  O66  O2-  0.413  0.554  0.744  1.000
  O66  O2-  0.413  0.554  0.944  1.000
  O66  O2-  0.413  0.754  0.144  1.000
  O66  O2-  0.413  0.754  0.344  1.000
  O66  O2-  0.413  0.754  0.544  1.000
  O66  O2-  0.413  0.754  0.744  1.000
  O66  O2-  0.413  0.754  0.944  1.000
  O66  O2-  0.413  0.954  0.144  1.000
  O66  O2-  0.413  0.954  0.344  1.000
  O66  O2-  0.413  0.954  0.544  1.000
  O66  O2-  0.413  0.954  0.744  1.000
  O66  O2-  0.413  0.954  0.944  1.000
  O66  O2-  0.613  0.154  0.144  1.000
  O66  O2-  0.613  0.154  0.344  1.000
  O66  O2-  0.613  0.154  0.544  1.000
  O66  O2-  0.613  0.154  0.744  1.000
  O66  O2-  0.613  0.154  0.944  1.000
  O66  O2-  0.613  0.354  0.144  1.000
  O66  O2-  0.613  0.354  0.344  1.000
  O66  O2-  0.613  0.354  0.544  1.000
  O66  O2-  0.613  0.354  0.744  1.000
  O66  O2-  0.613  0.354  0.944  1.000
  O66  O2-  0.613  0.554  0.144  1.000
  O66  O2-  0.613  0.554  0.344  1.000
  O66  O2-  0.613  0.554  0.544  1.000
  O66  O2-  0.613  0.554  0.744  1.000
  O66  O2-  0.613  0.554  0.944  1.000
  O66  O2-  0.613  0.754  0.144  1.000
  O66  O2-  0.613  0.754  0.344  1.000
  O66  O2-  0.613  0.754  0.544  1.000
  O66  O2-  0.613  0.754  0.744  1.000
  O66  O2-  0.613  0.754  0.944  1.000
  O66  O2-  0.613  0.954  0.144  1.000
  O66  O2-  0.613  0.954  0.344  1.000
  O66  O2-  0.613  0.954  0.544  1.000
  O66  O2-  0.613  0.954  0.744  1.000
  O66  O2-  0.613  0.954  0.944  1.000
  O66  O2-  0.813  0.154  0.144  1.000
  O66  O2-  0.813  0.154  0.344  1.000
  O66  O2-  0.813  0.154  0.544  1.000
  O66  O2-  0.813  0.154  0.744  1.000
  O66  O2-  0.813  0.154  0.944  1.000
  O66  O2-  0.813  0.354  0.144  1.000
  O66  O2-  0.813  0.354  0.344  1.000
  O66  O2-  0.813  0.354  0.544  1.000
  O66  O2-  0.813  0.354  0.744  1.000
  O66  O2-  0.813  0.354  0.944  1.000
  O66  O2-  0.813  0.554  0.144  1.000
  O66  O2-  0.813  0.554  0.344  1.000
  O66  O2-  0.813  0.554  0.544  1.000
  O66  O2-  0.813  0.554  0.744  1.000
  O66  O2-  0.813  0.554  0.944  1.000
  O66  O2-  0.813  0.754  0.144  1.000
  O66  O2-  0.813  0.754  0.344  1.000
  O66  O2-  0.813  0.754  0.544  1.000
  O66  O2-  0.813  0.754  0.744  1.000
  O66  O2-  0.813  0.754  0.944  1.000
  O66  O2-  0.813  0.954  0.144  1.000
  O66  O2-  0.813  0.954  0.344  1.000
  O66  O2-  0.813  0.954  0.544  1.000
  O66  O2-  0.813  0.954  0.744  1.000
  O66  O2-  0.813  0.954  0.944  1.000
  O67  O2-  0.013  0.046  0.056  1.000
  O67  O2-  0.013  0.046  0.256  1.000
  O67  O2-  0.013  0.046  0.456  1.000
  O67  O2-  0.013  0.046  0.656  1.000
  O67  O2-  0.013  0.046  0.856  1.000
  O67  O2-  0.013  0.246  0.056  1.000
  O67  O2-  0.013  0.246  0.256  1.000
  O67  O2-  0.013  0.246  0.456  1.000
  O67  O2-  0.013  0.246  0.656  1.000
  O67  O2-  0.013  0.246  0.856  1.000
  O67  O2-  0.013  0.446  0.056  1.000
  O67  O2-  0.013  0.446  0.256  1.000
  O67  O2-  0.013  0.446  0.456  1.000
  O67  O2-  0.013  0.446  0.656  1.000
  O67  O2-  0.013  0.446  0.856  1.000
  O67  O2-  0.013  0.646  0.056  1.000
  O67  O2-  0.013  0.646  0.256  1.000
  O67  O2-  0.013  0.646  0.456  1.000
  O67  O2-  0.013  0.646  0.656  1.000
  O67  O2-  0.013  0.646  0.856  1.000
  O67  O2-  0.013  0.846  0.056  1.000
  O67  O2-  0.013  0.846  0.256  1.000
  O67  O2-  0.013  0.846  0.456  1.000
  O67  O2-  0.013  0.846  0.656  1.000
  O67  O2-  0.013  0.846  0.856  1.000
  O67  O2-  0.213  0.046  0.056  1.000
  O67  O2-  0.213  0.046  0.256  1.000
  O67  O2-  0.213  0.046  0.456  1.000
  O67  O2-  0.213  0.046  0.656  1.000
  O67  O2-  0.213  0.046  0.856  1.000
  O67  O2-  0.213  0.246  0.056  1.000
  O67  O2-  0.213  0.246  0.256  1.000
  O67  O2-  0.213  0.246  0.456  1.000
  O67  O2-  0.213  0.246  0.656  1.000
  O67  O2-  0.213  0.246  0.856  1.000
  O67  O2-  0.213  0.446  0.056  1.000
  O67  O2-  0.213  0.446  0.256  1.000
  O67  O2-  0.213  0.446  0.456  1.000
  O67  O2-  0.213  0.446  0.656  1.000
  O67  O2-  0.213  0.446  0.856  1.000
  O67  O2-  0.213  0.646  0.056  1.000
  O67  O2-  0.213  0.646  0.256  1.000
  O67  O2-  0.213  0.646  0.456  1.000
  O67  O2-  0.213  0.646  0.656  1.000
  O67  O2-  0.213  0.646  0.856  1.000
  O67  O2-  0.213  0.846  0.056  1.000
  O67  O2-  0.213  0.846  0.256  1.000
  O67  O2-  0.213  0.846  0.456  1.000
  O67  O2-  0.213  0.846  0.656  1.000
  O67  O2-  0.213  0.846  0.856  1.000
  O67  O2-  0.413  0.046  0.056  1.000
  O67  O2-  0.413  0.046  0.256  1.000
  O67  O2-  0.413  0.046  0.456  1.000
  O67  O2-  0.413  0.046  0.656  1.000
  O67  O2-  0.413  0.046  0.856  1.000
  O67  O2-  0.413  0.246  0.056  1.000
  O67  O2-  0.413  0.246  0.256  1.000
  O67  O2-  0.413  0.246  0.456  1.000
  O67  O2-  0.413  0.246  0.656  1.000
  O67  O2-  0.413  0.246  0.856  1.000
  O67  O2-  0.413  0.446  0.056  1.000
  O67  O2-  0.413  0.446  0.256  1.000
  O67  O2-  0.413  0.446  0.456  1.000
  O67  O2-  0.413  0.446  0.656  1.000
  O67  O2-  0.413  0.446  0.856  1.000
  O67  O2-  0.413  0.646  0.056  1.000
  O67  O2-  0.413  0.646  0.256  1.000
  O67  O2-  0.413  0.646  0.456  1.000
  O67  O2-  0.413  0.646  0.656  1.000
  O67  O2-  0.413  0.646  0.856  1.000
  O67  O2-  0.413  0.846  0.056  1.000
  O67  O2-  0.413  0.846  0.256  1.000
  O67  O2-  0.413  0.846  0.456  1.000
  O67  O2-  0.413  0.846  0.656  1.000
  O67  O2-  0.413  0.846  0.856  1.000
  O67  O2-  0.613  0.046  0.056  1.000
  O67  O2-  0.613  0.046  0.256  1.000
  O67  O2-  0.613  0.046  0.456  1.000
  O67  O2-  0.613  0.046  0.656  1.000
  O67  O2-  0.613  0.046  0.856  1.000
  O67  O2-  0.613  0.246  0.056  1.000
  O67  O2-  0.613  0.246  0.256  1.000
  O67  O2-  0.613  0.246  0.456  1.000
  O67  O2-  0.613  0.246  0.656  1.000
  O67  O2-  0.613  0.246  0.856  1.000
  O67  O2-  0.613  0.446  0.056  1.000
  O67  O2-  0.613  0.446  0.256  1.000
  O67  O2-  0.613  0.446  0.456  1.000
  O67  O2-  0.613  0.446  0.656  1.000
  O67  O2-  0.613  0.446  0.856  1.000
  O67  O2-  0.613  0.646  0.056  1.000
  O67  O2-  0.613  0.646  0.256  1.000
  O67  O2-  0.613  0.646  0.456  1.000
  O67  O2-  0.613  0.646  0.656  1.000
  O67  O2-  0.613  0.646  0.856  1.000
  O67  O2-  0.613  0.846  0.056  1.000
  O67  O2-  0.613  0.846  0.256  1.000
  O67  O2-  0.613  0.846  0.456  1.000
  O67  O2-  0.613  0.846  0.656  1.000
  O67  O2-  0.613  0.846  0.856  1.000
  O67  O2-  0.813  0.046  0.056  1.000
  O67  O2-  0.813  0.046  0.256  1.000
  O67  O2-  0.813  0.046  0.456  1.000
  O67  O2-  0.813  0.046  0.656  1.000
  O67  O2-  0.813  0.046  0.856  1.000
  O67  O2-  0.813  0.246  0.056  1.000
  O67  O2-  0.813  0.246  0.256  1.000
  O67  O2-  0.813  0.246  0.456  1.000
  O67  O2-  0.813  0.246  0.656  1.000
  O67  O2-  0.813  0.246  0.856  1.000
  O67  O2-  0.813  0.446  0.056  1.000
  O67  O2-  0.813  0.446  0.256  1.000
  O67  O2-  0.813  0.446  0.456  1.000
  O67  O2-  0.813  0.446  0.656  1.000
  O67  O2-  0.813  0.446  0.856  1.000
  O67  O2-  0.813  0.646  0.056  1.000
  O67  O2-  0.813  0.646  0.256  1.000
  O67  O2-  0.813  0.646  0.456  1.000
  O67  O2-  0.813  0.646  0.656  1.000
  O67  O2-  0.813  0.646  0.856  1.000
  O67  O2-  0.813  0.846  0.056  1.000
  O67  O2-  0.813  0.846  0.256  1.000
  O67  O2-  0.813  0.846  0.456  1.000
  O67  O2-  0.813  0.846  0.656  1.000
  O67  O2-  0.813  0.846  0.856  1.000
  O68  O2-  0.187  0.054  0.156  1.000
  O68  O2-  0.187  0.054  0.356  1.000
  O68  O2-  0.187  0.054  0.556  1.000
  O68  O2-  0.187  0.054  0.756  1.000
  O68  O2-  0.187  0.054  0.956  1.000
  O68  O2-  0.187  0.254  0.156  1.000
  O68  O2-  0.187  0.254  0.356  1.000
  O68  O2-  0.187  0.254  0.556  1.000
  O68  O2-  0.187  0.254  0.756  1.000
  O68  O2-  0.187  0.254  0.956  1.000
  O68  O2-  0.187  0.454  0.156  1.000
  O68  O2-  0.187  0.454  0.356  1.000
  O68  O2-  0.187  0.454  0.556  1.000
  O68  O2-  0.187  0.454  0.756  1.000
  O68  O2-  0.187  0.454  0.956  1.000
  O68  O2-  0.187  0.654  0.156  1.000
  O68  O2-  0.187  0.654  0.356  1.000
  O68  O2-  0.187  0.654  0.556  1.000
  O68  O2-  0.187  0.654  0.756  1.000
  O68  O2-  0.187  0.654  0.956  1.000
  O68  O2-  0.187  0.854  0.156  1.000
  O68  O2-  0.187  0.854  0.356  1.000
  O68  O2-  0.187  0.854  0.556  1.000
  O68  O2-  0.187  0.854  0.756  1.000
  O68  O2-  0.187  0.854  0.956  1.000
  O68  O2-  0.387  0.054  0.156  1.000
  O68  O2-  0.387  0.054  0.356  1.000
  O68  O2-  0.387  0.054  0.556  1.000
  O68  O2-  0.387  0.054  0.756  1.000
  O68  O2-  0.387  0.054  0.956  1.000
  O68  O2-  0.387  0.254  0.156  1.000
  O68  O2-  0.387  0.254  0.356  1.000
  O68  O2-  0.387  0.254  0.556  1.000
  O68  O2-  0.387  0.254  0.756  1.000
  O68  O2-  0.387  0.254  0.956  1.000
  O68  O2-  0.387  0.454  0.156  1.000
  O68  O2-  0.387  0.454  0.356  1.000
  O68  O2-  0.387  0.454  0.556  1.000
  O68  O2-  0.387  0.454  0.756  1.000
  O68  O2-  0.387  0.454  0.956  1.000
  O68  O2-  0.387  0.654  0.156  1.000
  O68  O2-  0.387  0.654  0.356  1.000
  O68  O2-  0.387  0.654  0.556  1.000
  O68  O2-  0.387  0.654  0.756  1.000
  O68  O2-  0.387  0.654  0.956  1.000
  O68  O2-  0.387  0.854  0.156  1.000
  O68  O2-  0.387  0.854  0.356  1.000
  O68  O2-  0.387  0.854  0.556  1.000
  O68  O2-  0.387  0.854  0.756  1.000
  O68  O2-  0.387  0.854  0.956  1.000
  O68  O2-  0.587  0.054  0.156  1.000
  O68  O2-  0.587  0.054  0.356  1.000
  O68  O2-  0.587  0.054  0.556  1.000
  O68  O2-  0.587  0.054  0.756  1.000
  O68  O2-  0.587  0.054  0.956  1.000
  O68  O2-  0.587  0.254  0.156  1.000
  O68  O2-  0.587  0.254  0.356  1.000
  O68  O2-  0.587  0.254  0.556  1.000
  O68  O2-  0.587  0.254  0.756  1.000
  O68  O2-  0.587  0.254  0.956  1.000
  O68  O2-  0.587  0.454  0.156  1.000
  O68  O2-  0.587  0.454  0.356  1.000
  O68  O2-  0.587  0.454  0.556  1.000
  O68  O2-  0.587  0.454  0.756  1.000
  O68  O2-  0.587  0.454  0.956  1.000
  O68  O2-  0.587  0.654  0.156  1.000
  O68  O2-  0.587  0.654  0.356  1.000
  O68  O2-  0.587  0.654  0.556  1.000
  O68  O2-  0.587  0.654  0.756  1.000
  O68  O2-  0.587  0.654  0.956  1.000
  O68  O2-  0.587  0.854  0.156  1.000
  O68  O2-  0.587  0.854  0.356  1.000
  O68  O2-  0.587  0.854  0.556  1.000
  O68  O2-  0.587  0.854  0.756  1.000
  O68  O2-  0.587  0.854  0.956  1.000
  O68  O2-  0.787  0.054  0.156  1.000
  O68  O2-  0.787  0.054  0.356  1.000
  O68  O2-  0.787  0.054  0.556  1.000
  O68  O2-  0.787  0.054  0.756  1.000
  O68  O2-  0.787  0.054  0.956  1.000
  O68  O2-  0.787  0.254  0.156  1.000
  O68  O2-  0.787  0.254  0.356  1.000
  O68  O2-  0.787  0.254  0.556  1.000
  O68  O2-  0.787  0.254  0.756  1.000
  O68  O2-  0.787  0.254  0.956  1.000
  O68  O2-  0.787  0.454  0.156  1.000
  O68  O2-  0.787  0.454  0.356  1.000
  O68  O2-  0.787  0.454  0.556  1.000
  O68  O2-  0.787  0.454  0.756  1.000
  O68  O2-  0.787  0.454  0.956  1.000
  O68  O2-  0.787  0.654  0.156  1.000
  O68  O2-  0.787  0.654  0.356  1.000
  O68  O2-  0.787  0.654  0.556  1.000
  O68  O2-  0.787  0.654  0.756  1.000
  O68  O2-  0.787  0.654  0.956  1.000
  O68  O2-  0.787  0.854  0.156  1.000
  O68  O2-  0.787  0.854  0.356  1.000
  O68  O2-  0.787  0.854  0.556  1.000
  O68  O2-  0.787  0.854  0.756  1.000
  O68  O2-  0.787  0.854  0.956  1.000
  O68  O2-  0.987  0.054  0.156  1.000
  O68  O2-  0.987  0.054  0.356  1.000
  O68  O2-  0.987  0.054  0.556  1.000
  O68  O2-  0.987  0.054  0.756  1.000
  O68  O2-  0.987  0.054  0.956  1.000
  O68  O2-  0.987  0.254  0.156  1.000
  O68  O2-  0.987  0.254  0.356  1.000
  O68  O2-  0.987  0.254  0.556  1.000
  O68  O2-  0.987  0.254  0.756  1.000
  O68  O2-  0.987  0.254  0.956  1.000
  O68  O2-  0.987  0.454  0.156  1.000
  O68  O2-  0.987  0.454  0.356  1.000
  O68  O2-  0.987  0.454  0.556  1.000
  O68  O2-  0.987  0.454  0.756  1.000
  O68  O2-  0.987  0.454  0.956  1.000
  O68  O2-  0.987  0.654  0.156  1.000
  O68  O2-  0.987  0.654  0.356  1.000
  O68  O2-  0.987  0.654  0.556  1.000
  O68  O2-  0.987  0.654  0.756  1.000
  O68  O2-  0.987  0.654  0.956  1.000
  O68  O2-  0.987  0.854  0.156  1.000
  O68  O2-  0.987  0.854  0.356  1.000
  O68  O2-  0.987  0.854  0.556  1.000
  O68  O2-  0.987  0.854  0.756  1.000
  O68  O2-  0.987  0.854  0.956  1.000
  O69  O2-  0.187  0.146  0.044  1.000
  O69  O2-  0.187  0.146  0.244  1.000
  O69  O2-  0.187  0.146  0.444  1.000
  O69  O2-  0.187  0.146  0.644  1.000
  O69  O2-  0.187  0.146  0.844  1.000
  O69  O2-  0.187  0.346  0.044  1.000
  O69  O2-  0.187  0.346  0.244  1.000
  O69  O2-  0.187  0.346  0.444  1.000
  O69  O2-  0.187  0.346  0.644  1.000
  O69  O2-  0.187  0.346  0.844  1.000
  O69  O2-  0.187  0.546  0.044  1.000
  O69  O2-  0.187  0.546  0.244  1.000
  O69  O2-  0.187  0.546  0.444  1.000
  O69  O2-  0.187  0.546  0.644  1.000
  O69  O2-  0.187  0.546  0.844  1.000
  O69  O2-  0.187  0.746  0.044  1.000
  O69  O2-  0.187  0.746  0.244  1.000
  O69  O2-  0.187  0.746  0.444  1.000
  O69  O2-  0.187  0.746  0.644  1.000
  O69  O2-  0.187  0.746  0.844  1.000
  O69  O2-  0.187  0.946  0.044  1.000
  O69  O2-  0.187  0.946  0.244  1.000
  O69  O2-  0.187  0.946  0.444  1.000
  O69  O2-  0.187  0.946  0.644  1.000
  O69  O2-  0.187  0.946  0.844  1.000
  O69  O2-  0.387  0.146  0.044  1.000
  O69  O2-  0.387  0.146  0.244  1.000
  O69  O2-  0.387  0.146  0.444  1.000
  O69  O2-  0.387  0.146  0.644  1.000
  O69  O2-  0.387  0.146  0.844  1.000
  O69  O2-  0.387  0.346  0.044  1.000
  O69  O2-  0.387  0.346  0.244  1.000
  O69  O2-  0.387  0.346  0.444  1.000
  O69  O2-  0.387  0.346  0.644  1.000
  O69  O2-  0.387  0.346  0.844  1.000
  O69  O2-  0.387  0.546  0.044  1.000
  O69  O2-  0.387  0.546  0.244  1.000
  O69  O2-  0.387  0.546  0.444  1.000
  O69  O2-  0.387  0.546  0.644  1.000
  O69  O2-  0.387  0.546  0.844  1.000
  O69  O2-  0.387  0.746  0.044  1.000
  O69  O2-  0.387  0.746  0.244  1.000
  O69  O2-  0.387  0.746  0.444  1.000
  O69  O2-  0.387  0.746  0.644  1.000
  O69  O2-  0.387  0.746  0.844  1.000
  O69  O2-  0.387  0.946  0.044  1.000
  O69  O2-  0.387  0.946  0.244  1.000
  O69  O2-  0.387  0.946  0.444  1.000
  O69  O2-  0.387  0.946  0.644  1.000
  O69  O2-  0.387  0.946  0.844  1.000
  O69  O2-  0.587  0.146  0.044  1.000
  O69  O2-  0.587  0.146  0.244  1.000
  O69  O2-  0.587  0.146  0.444  1.000
  O69  O2-  0.587  0.146  0.644  1.000
  O69  O2-  0.587  0.146  0.844  1.000
  O69  O2-  0.587  0.346  0.044  1.000
  O69  O2-  0.587  0.346  0.244  1.000
  O69  O2-  0.587  0.346  0.444  1.000
  O69  O2-  0.587  0.346  0.644  1.000
  O69  O2-  0.587  0.346  0.844  1.000
  O69  O2-  0.587  0.546  0.044  1.000
  O69  O2-  0.587  0.546  0.244  1.000
  O69  O2-  0.587  0.546  0.444  1.000
  O69  O2-  0.587  0.546  0.644  1.000
  O69  O2-  0.587  0.546  0.844  1.000
  O69  O2-  0.587  0.746  0.044  1.000
  O69  O2-  0.587  0.746  0.244  1.000
  O69  O2-  0.587  0.746  0.444  1.000
  O69  O2-  0.587  0.746  0.644  1.000
  O69  O2-  0.587  0.746  0.844  1.000
  O69  O2-  0.587  0.946  0.044  1.000
  O69  O2-  0.587  0.946  0.244  1.000
  O69  O2-  0.587  0.946  0.444  1.000
  O69  O2-  0.587  0.946  0.644  1.000
  O69  O2-  0.587  0.946  0.844  1.000
  O69  O2-  0.787  0.146  0.044  1.000
  O69  O2-  0.787  0.146  0.244  1.000
  O69  O2-  0.787  0.146  0.444  1.000
  O69  O2-  0.787  0.146  0.644  1.000
  O69  O2-  0.787  0.146  0.844  1.000
  O69  O2-  0.787  0.346  0.044  1.000
  O69  O2-  0.787  0.346  0.244  1.000
  O69  O2-  0.787  0.346  0.444  1.000
  O69  O2-  0.787  0.346  0.644  1.000
  O69  O2-  0.787  0.346  0.844  1.000
  O69  O2-  0.787  0.546  0.044  1.000
  O69  O2-  0.787  0.546  0.244  1.000
  O69  O2-  0.787  0.546  0.444  1.000
  O69  O2-  0.787  0.546  0.644  1.000
  O69  O2-  0.787  0.546  0.844  1.000
  O69  O2-  0.787  0.746  0.044  1.000
  O69  O2-  0.787  0.746  0.244  1.000
  O69  O2-  0.787  0.746  0.444  1.000
  O69  O2-  0.787  0.746  0.644  1.000
  O69  O2-  0.787  0.746  0.844  1.000
  O69  O2-  0.787  0.946  0.044  1.000
  O69  O2-  0.787  0.946  0.244  1.000
  O69  O2-  0.787  0.946  0.444  1.000
  O69  O2-  0.787  0.946  0.644  1.000
  O69  O2-  0.787  0.946  0.844  1.000
  O69  O2-  0.987  0.146  0.044  1.000
  O69  O2-  0.987  0.146  0.244  1.000
  O69  O2-  0.987  0.146  0.444  1.000
  O69  O2-  0.987  0.146  0.644  1.000
  O69  O2-  0.987  0.146  0.844  1.000
  O69  O2-  0.987  0.346  0.044  1.000
  O69  O2-  0.987  0.346  0.244  1.000
  O69  O2-  0.987  0.346  0.444  1.000
  O69  O2-  0.987  0.346  0.644  1.000
  O69  O2-  0.987  0.346  0.844  1.000
  O69  O2-  0.987  0.546  0.044  1.000
  O69  O2-  0.987  0.546  0.244  1.000
  O69  O2-  0.987  0.546  0.444  1.000
  O69  O2-  0.987  0.546  0.644  1.000
  O69  O2-  0.987  0.546  0.844  1.000
  O69  O2-  0.987  0.746  0.044  1.000
  O69  O2-  0.987  0.746  0.244  1.000
  O69  O2-  0.987  0.746  0.444  1.000
  O69  O2-  0.987  0.746  0.644  1.000
  O69  O2-  0.987  0.746  0.844  1.000
  O69  O2-  0.987  0.946  0.044  1.000
  O69  O2-  0.987  0.946  0.244  1.000
  O69  O2-  0.987  0.946  0.444  1.000
  O69  O2-  0.987  0.946  0.644  1.000
  O69  O2-  0.987  0.946  0.844  1.000
  O70  O2-  0.181  0.197  0.162  1.000
  O70  O2-  0.181  0.197  0.362  1.000
  O70  O2-  0.181  0.197  0.562  1.000
  O70  O2-  0.181  0.197  0.762  1.000
  O70  O2-  0.181  0.197  0.962  1.000
  O70  O2-  0.181  0.397  0.162  1.000
  O70  O2-  0.181  0.397  0.362  1.000
  O70  O2-  0.181  0.397  0.562  1.000
  O70  O2-  0.181  0.397  0.762  1.000
  O70  O2-  0.181  0.397  0.962  1.000
  O70  O2-  0.181  0.597  0.162  1.000
  O70  O2-  0.181  0.597  0.362  1.000
  O70  O2-  0.181  0.597  0.562  1.000
  O70  O2-  0.181  0.597  0.762  1.000
  O70  O2-  0.181  0.597  0.962  1.000
  O70  O2-  0.181  0.797  0.162  1.000
  O70  O2-  0.181  0.797  0.362  1.000
  O70  O2-  0.181  0.797  0.562  1.000
  O70  O2-  0.181  0.797  0.762  1.000
  O70  O2-  0.181  0.797  0.962  1.000
  O70  O2-  0.181  0.997  0.162  1.000
  O70  O2-  0.181  0.997  0.362  1.000
  O70  O2-  0.181  0.997  0.562  1.000
  O70  O2-  0.181  0.997  0.762  1.000
  O70  O2-  0.181  0.997  0.962  1.000
  O70  O2-  0.381  0.197  0.162  1.000
  O70  O2-  0.381  0.197  0.362  1.000
  O70  O2-  0.381  0.197  0.562  1.000
  O70  O2-  0.381  0.197  0.762  1.000
  O70  O2-  0.381  0.197  0.962  1.000
  O70  O2-  0.381  0.397  0.162  1.000
  O70  O2-  0.381  0.397  0.362  1.000
  O70  O2-  0.381  0.397  0.562  1.000
  O70  O2-  0.381  0.397  0.762  1.000
  O70  O2-  0.381  0.397  0.962  1.000
  O70  O2-  0.381  0.597  0.162  1.000
  O70  O2-  0.381  0.597  0.362  1.000
  O70  O2-  0.381  0.597  0.562  1.000
  O70  O2-  0.381  0.597  0.762  1.000
  O70  O2-  0.381  0.597  0.962  1.000
  O70  O2-  0.381  0.797  0.162  1.000
  O70  O2-  0.381  0.797  0.362  1.000
  O70  O2-  0.381  0.797  0.562  1.000
  O70  O2-  0.381  0.797  0.762  1.000
  O70  O2-  0.381  0.797  0.962  1.000
  O70  O2-  0.381  0.997  0.162  1.000
  O70  O2-  0.381  0.997  0.362  1.000
  O70  O2-  0.381  0.997  0.562  1.000
  O70  O2-  0.381  0.997  0.762  1.000
  O70  O2-  0.381  0.997  0.962  1.000
  O70  O2-  0.581  0.197  0.162  1.000
  O70  O2-  0.581  0.197  0.362  1.000
  O70  O2-  0.581  0.197  0.562  1.000
  O70  O2-  0.581  0.197  0.762  1.000
  O70  O2-  0.581  0.197  0.962  1.000
  O70  O2-  0.581  0.397  0.162  1.000
  O70  O2-  0.581  0.397  0.362  1.000
  O70  O2-  0.581  0.397  0.562  1.000
  O70  O2-  0.581  0.397  0.762  1.000
  O70  O2-  0.581  0.397  0.962  1.000
  O70  O2-  0.581  0.597  0.162  1.000
  O70  O2-  0.581  0.597  0.362  1.000
  O70  O2-  0.581  0.597  0.562  1.000
  O70  O2-  0.581  0.597  0.762  1.000
  O70  O2-  0.581  0.597  0.962  1.000
  O70  O2-  0.581  0.797  0.162  1.000
  O70  O2-  0.581  0.797  0.362  1.000
  O70  O2-  0.581  0.797  0.562  1.000
  O70  O2-  0.581  0.797  0.762  1.000
  O70  O2-  0.581  0.797  0.962  1.000
  O70  O2-  0.581  0.997  0.162  1.000
  O70  O2-  0.581  0.997  0.362  1.000
  O70  O2-  0.581  0.997  0.562  1.000
  O70  O2-  0.581  0.997  0.762  1.000
  O70  O2-  0.581  0.997  0.962  1.000
  O70  O2-  0.781  0.197  0.162  1.000
  O70  O2-  0.781  0.197  0.362  1.000
  O70  O2-  0.781  0.197  0.562  1.000
  O70  O2-  0.781  0.197  0.762  1.000
  O70  O2-  0.781  0.197  0.962  1.000
  O70  O2-  0.781  0.397  0.162  1.000
  O70  O2-  0.781  0.397  0.362  1.000
  O70  O2-  0.781  0.397  0.562  1.000
  O70  O2-  0.781  0.397  0.762  1.000
  O70  O2-  0.781  0.397  0.962  1.000
  O70  O2-  0.781  0.597  0.162  1.000
  O70  O2-  0.781  0.597  0.362  1.000
  O70  O2-  0.781  0.597  0.562  1.000
  O70  O2-  0.781  0.597  0.762  1.000
  O70  O2-  0.781  0.597  0.962  1.000
  O70  O2-  0.781  0.797  0.162  1.000
  O70  O2-  0.781  0.797  0.362  1.000
  O70  O2-  0.781  0.797  0.562  1.000
  O70  O2-  0.781  0.797  0.762  1.000
  O70  O2-  0.781  0.797  0.962  1.000
  O70  O2-  0.781  0.997  0.162  1.000
  O70  O2-  0.781  0.997  0.362  1.000
  O70  O2-  0.781  0.997  0.562  1.000
  O70  O2-  0.781  0.997  0.762  1.000
  O70  O2-  0.781  0.997  0.962  1.000
  O70  O2-  0.981  0.197  0.162  1.000
  O70  O2-  0.981  0.197  0.362  1.000
  O70  O2-  0.981  0.197  0.562  1.000
  O70  O2-  0.981  0.197  0.762  1.000
  O70  O2-  0.981  0.197  0.962  1.000
  O70  O2-  0.981  0.397  0.162  1.000
  O70  O2-  0.981  0.397  0.362  1.000
  O70  O2-  0.981  0.397  0.562  1.000
  O70  O2-  0.981  0.397  0.762  1.000
  O70  O2-  0.981  0.397  0.962  1.000
  O70  O2-  0.981  0.597  0.162  1.000
  O70  O2-  0.981  0.597  0.362  1.000
  O70  O2-  0.981  0.597  0.562  1.000
  O70  O2-  0.981  0.597  0.762  1.000
  O70  O2-  0.981  0.597  0.962  1.000
  O70  O2-  0.981  0.797  0.162  1.000
  O70  O2-  0.981  0.797  0.362  1.000
  O70  O2-  0.981  0.797  0.562  1.000
  O70  O2-  0.981  0.797  0.762  1.000
  O70  O2-  0.981  0.797  0.962  1.000
  O70  O2-  0.981  0.997  0.162  1.000
  O70  O2-  0.981  0.997  0.362  1.000
  O70  O2-  0.981  0.997  0.562  1.000
  O70  O2-  0.981  0.997  0.762  1.000
  O70  O2-  0.981  0.997  0.962  1.000
  O71  O2-  0.181  0.003  0.038  1.000
  O71  O2-  0.181  0.003  0.238  1.000
  O71  O2-  0.181  0.003  0.438  1.000
  O71  O2-  0.181  0.003  0.638  1.000
  O71  O2-  0.181  0.003  0.838  1.000
  O71  O2-  0.181  0.203  0.038  1.000
  O71  O2-  0.181  0.203  0.238  1.000
  O71  O2-  0.181  0.203  0.438  1.000
  O71  O2-  0.181  0.203  0.638  1.000
  O71  O2-  0.181  0.203  0.838  1.000
  O71  O2-  0.181  0.403  0.038  1.000
  O71  O2-  0.181  0.403  0.238  1.000
  O71  O2-  0.181  0.403  0.438  1.000
  O71  O2-  0.181  0.403  0.638  1.000
  O71  O2-  0.181  0.403  0.838  1.000
  O71  O2-  0.181  0.603  0.038  1.000
  O71  O2-  0.181  0.603  0.238  1.000
  O71  O2-  0.181  0.603  0.438  1.000
  O71  O2-  0.181  0.603  0.638  1.000
  O71  O2-  0.181  0.603  0.838  1.000
  O71  O2-  0.181  0.803  0.038  1.000
  O71  O2-  0.181  0.803  0.238  1.000
  O71  O2-  0.181  0.803  0.438  1.000
  O71  O2-  0.181  0.803  0.638  1.000
  O71  O2-  0.181  0.803  0.838  1.000
  O71  O2-  0.381  0.003  0.038  1.000
  O71  O2-  0.381  0.003  0.238  1.000
  O71  O2-  0.381  0.003  0.438  1.000
  O71  O2-  0.381  0.003  0.638  1.000
  O71  O2-  0.381  0.003  0.838  1.000
  O71  O2-  0.381  0.203  0.038  1.000
  O71  O2-  0.381  0.203  0.238  1.000
  O71  O2-  0.381  0.203  0.438  1.000
  O71  O2-  0.381  0.203  0.638  1.000
  O71  O2-  0.381  0.203  0.838  1.000
  O71  O2-  0.381  0.403  0.038  1.000
  O71  O2-  0.381  0.403  0.238  1.000
  O71  O2-  0.381  0.403  0.438  1.000
  O71  O2-  0.381  0.403  0.638  1.000
  O71  O2-  0.381  0.403  0.838  1.000
  O71  O2-  0.381  0.603  0.038  1.000
  O71  O2-  0.381  0.603  0.238  1.000
  O71  O2-  0.381  0.603  0.438  1.000
  O71  O2-  0.381  0.603  0.638  1.000
  O71  O2-  0.381  0.603  0.838  1.000
  O71  O2-  0.381  0.803  0.038  1.000
  O71  O2-  0.381  0.803  0.238  1.000
  O71  O2-  0.381  0.803  0.438  1.000
  O71  O2-  0.381  0.803  0.638  1.000
  O71  O2-  0.381  0.803  0.838  1.000
  O71  O2-  0.581  0.003  0.038  1.000
  O71  O2-  0.581  0.003  0.238  1.000
  O71  O2-  0.581  0.003  0.438  1.000
  O71  O2-  0.581  0.003  0.638  1.000
  O71  O2-  0.581  0.003  0.838  1.000
  O71  O2-  0.581  0.203  0.038  1.000
  O71  O2-  0.581  0.203  0.238  1.000
  O71  O2-  0.581  0.203  0.438  1.000
  O71  O2-  0.581  0.203  0.638  1.000
  O71  O2-  0.581  0.203  0.838  1.000
  O71  O2-  0.581  0.403  0.038  1.000
  O71  O2-  0.581  0.403  0.238  1.000
  O71  O2-  0.581  0.403  0.438  1.000
  O71  O2-  0.581  0.403  0.638  1.000
  O71  O2-  0.581  0.403  0.838  1.000
  O71  O2-  0.581  0.603  0.038  1.000
  O71  O2-  0.581  0.603  0.238  1.000
  O71  O2-  0.581  0.603  0.438  1.000
  O71  O2-  0.581  0.603  0.638  1.000
  O71  O2-  0.581  0.603  0.838  1.000
  O71  O2-  0.581  0.803  0.038  1.000
  O71  O2-  0.581  0.803  0.238  1.000
  O71  O2-  0.581  0.803  0.438  1.000
  O71  O2-  0.581  0.803  0.638  1.000
  O71  O2-  0.581  0.803  0.838  1.000
  O71  O2-  0.781  0.003  0.038  1.000
  O71  O2-  0.781  0.003  0.238  1.000
  O71  O2-  0.781  0.003  0.438  1.000
  O71  O2-  0.781  0.003  0.638  1.000
  O71  O2-  0.781  0.003  0.838  1.000
  O71  O2-  0.781  0.203  0.038  1.000
  O71  O2-  0.781  0.203  0.238  1.000
  O71  O2-  0.781  0.203  0.438  1.000
  O71  O2-  0.781  0.203  0.638  1.000
  O71  O2-  0.781  0.203  0.838  1.000
  O71  O2-  0.781  0.403  0.038  1.000
  O71  O2-  0.781  0.403  0.238  1.000
  O71  O2-  0.781  0.403  0.438  1.000
  O71  O2-  0.781  0.403  0.638  1.000
  O71  O2-  0.781  0.403  0.838  1.000
  O71  O2-  0.781  0.603  0.038  1.000
  O71  O2-  0.781  0.603  0.238  1.000
  O71  O2-  0.781  0.603  0.438  1.000
  O71  O2-  0.781  0.603  0.638  1.000
  O71  O2-  0.781  0.603  0.838  1.000
  O71  O2-  0.781  0.803  0.038  1.000
  O71  O2-  0.781  0.803  0.238  1.000
  O71  O2-  0.781  0.803  0.438  1.000
  O71  O2-  0.781  0.803  0.638  1.000
  O71  O2-  0.781  0.803  0.838  1.000
  O71  O2-  0.981  0.003  0.038  1.000
  O71  O2-  0.981  0.003  0.238  1.000
  O71  O2-  0.981  0.003  0.438  1.000
  O71  O2-  0.981  0.003  0.638  1.000
  O71  O2-  0.981  0.003  0.838  1.000
  O71  O2-  0.981  0.203  0.038  1.000
  O71  O2-  0.981  0.203  0.238  1.000
  O71  O2-  0.981  0.203  0.438  1.000
  O71  O2-  0.981  0.203  0.638  1.000
  O71  O2-  0.981  0.203  0.838  1.000
  O71  O2-  0.981  0.403  0.038  1.000
  O71  O2-  0.981  0.403  0.238  1.000
  O71  O2-  0.981  0.403  0.438  1.000
  O71  O2-  0.981  0.403  0.638  1.000
  O71  O2-  0.981  0.403  0.838  1.000
  O71  O2-  0.981  0.603  0.038  1.000
  O71  O2-  0.981  0.603  0.238  1.000
  O71  O2-  0.981  0.603  0.438  1.000
  O71  O2-  0.981  0.603  0.638  1.000
  O71  O2-  0.981  0.603  0.838  1.000
  O71  O2-  0.981  0.803  0.038  1.000
  O71  O2-  0.981  0.803  0.238  1.000
  O71  O2-  0.981  0.803  0.438  1.000
  O71  O2-  0.981  0.803  0.638  1.000
  O71  O2-  0.981  0.803  0.838  1.000
  O72  O2-  0.181  0.018  0.116  1.000
  O72  O2-  0.181  0.018  0.316  1.000
  O72  O2-  0.181  0.018  0.516  1.000
  O72  O2-  0.181  0.018  0.716  1.000
  O72  O2-  0.181  0.018  0.916  1.000
  O72  O2-  0.181  0.218  0.116  1.000
  O72  O2-  0.181  0.218  0.316  1.000
  O72  O2-  0.181  0.218  0.516  1.000
  O72  O2-  0.181  0.218  0.716  1.000
  O72  O2-  0.181  0.218  0.916  1.000
  O72  O2-  0.181  0.418  0.116  1.000
  O72  O2-  0.181  0.418  0.316  1.000
  O72  O2-  0.181  0.418  0.516  1.000
  O72  O2-  0.181  0.418  0.716  1.000
  O72  O2-  0.181  0.418  0.916  1.000
  O72  O2-  0.181  0.618  0.116  1.000
  O72  O2-  0.181  0.618  0.316  1.000
  O72  O2-  0.181  0.618  0.516  1.000
  O72  O2-  0.181  0.618  0.716  1.000
  O72  O2-  0.181  0.618  0.916  1.000
  O72  O2-  0.181  0.818  0.116  1.000
  O72  O2-  0.181  0.818  0.316  1.000
  O72  O2-  0.181  0.818  0.516  1.000
  O72  O2-  0.181  0.818  0.716  1.000
  O72  O2-  0.181  0.818  0.916  1.000
  O72  O2-  0.381  0.018  0.116  1.000
  O72  O2-  0.381  0.018  0.316  1.000
  O72  O2-  0.381  0.018  0.516  1.000
  O72  O2-  0.381  0.018  0.716  1.000
  O72  O2-  0.381  0.018  0.916  1.000
  O72  O2-  0.381  0.218  0.116  1.000
  O72  O2-  0.381  0.218  0.316  1.000
  O72  O2-  0.381  0.218  0.516  1.000
  O72  O2-  0.381  0.218  0.716  1.000
  O72  O2-  0.381  0.218  0.916  1.000
  O72  O2-  0.381  0.418  0.116  1.000
  O72  O2-  0.381  0.418  0.316  1.000
  O72  O2-  0.381  0.418  0.516  1.000
  O72  O2-  0.381  0.418  0.716  1.000
  O72  O2-  0.381  0.418  0.916  1.000
  O72  O2-  0.381  0.618  0.116  1.000
  O72  O2-  0.381  0.618  0.316  1.000
  O72  O2-  0.381  0.618  0.516  1.000
  O72  O2-  0.381  0.618  0.716  1.000
  O72  O2-  0.381  0.618  0.916  1.000
  O72  O2-  0.381  0.818  0.116  1.000
  O72  O2-  0.381  0.818  0.316  1.000
  O72  O2-  0.381  0.818  0.516  1.000
  O72  O2-  0.381  0.818  0.716  1.000
  O72  O2-  0.381  0.818  0.916  1.000
  O72  O2-  0.581  0.018  0.116  1.000
  O72  O2-  0.581  0.018  0.316  1.000
  O72  O2-  0.581  0.018  0.516  1.000
  O72  O2-  0.581  0.018  0.716  1.000
  O72  O2-  0.581  0.018  0.916  1.000
  O72  O2-  0.581  0.218  0.116  1.000
  O72  O2-  0.581  0.218  0.316  1.000
  O72  O2-  0.581  0.218  0.516  1.000
  O72  O2-  0.581  0.218  0.716  1.000
  O72  O2-  0.581  0.218  0.916  1.000
  O72  O2-  0.581  0.418  0.116  1.000
  O72  O2-  0.581  0.418  0.316  1.000
  O72  O2-  0.581  0.418  0.516  1.000
  O72  O2-  0.581  0.418  0.716  1.000
  O72  O2-  0.581  0.418  0.916  1.000
  O72  O2-  0.581  0.618  0.116  1.000
  O72  O2-  0.581  0.618  0.316  1.000
  O72  O2-  0.581  0.618  0.516  1.000
  O72  O2-  0.581  0.618  0.716  1.000
  O72  O2-  0.581  0.618  0.916  1.000
  O72  O2-  0.581  0.818  0.116  1.000
  O72  O2-  0.581  0.818  0.316  1.000
  O72  O2-  0.581  0.818  0.516  1.000
  O72  O2-  0.581  0.818  0.716  1.000
  O72  O2-  0.581  0.818  0.916  1.000
  O72  O2-  0.781  0.018  0.116  1.000
  O72  O2-  0.781  0.018  0.316  1.000
  O72  O2-  0.781  0.018  0.516  1.000
  O72  O2-  0.781  0.018  0.716  1.000
  O72  O2-  0.781  0.018  0.916  1.000
  O72  O2-  0.781  0.218  0.116  1.000
  O72  O2-  0.781  0.218  0.316  1.000
  O72  O2-  0.781  0.218  0.516  1.000
  O72  O2-  0.781  0.218  0.716  1.000
  O72  O2-  0.781  0.218  0.916  1.000
  O72  O2-  0.781  0.418  0.116  1.000
  O72  O2-  0.781  0.418  0.316  1.000
  O72  O2-  0.781  0.418  0.516  1.000
  O72  O2-  0.781  0.418  0.716  1.000
  O72  O2-  0.781  0.418  0.916  1.000
  O72  O2-  0.781  0.618  0.116  1.000
  O72  O2-  0.781  0.618  0.316  1.000
  O72  O2-  0.781  0.618  0.516  1.000
  O72  O2-  0.781  0.618  0.716  1.000
  O72  O2-  0.781  0.618  0.916  1.000
  O72  O2-  0.781  0.818  0.116  1.000
  O72  O2-  0.781  0.818  0.316  1.000
  O72  O2-  0.781  0.818  0.516  1.000
  O72  O2-  0.781  0.818  0.716  1.000
  O72  O2-  0.781  0.818  0.916  1.000
  O72  O2-  0.981  0.018  0.116  1.000
  O72  O2-  0.981  0.018  0.316  1.000
  O72  O2-  0.981  0.018  0.516  1.000
  O72  O2-  0.981  0.018  0.716  1.000
  O72  O2-  0.981  0.018  0.916  1.000
  O72  O2-  0.981  0.218  0.116  1.000
  O72  O2-  0.981  0.218  0.316  1.000
  O72  O2-  0.981  0.218  0.516  1.000
  O72  O2-  0.981  0.218  0.716  1.000
  O72  O2-  0.981  0.218  0.916  1.000
  O72  O2-  0.981  0.418  0.116  1.000
  O72  O2-  0.981  0.418  0.316  1.000
  O72  O2-  0.981  0.418  0.516  1.000
  O72  O2-  0.981  0.418  0.716  1.000
  O72  O2-  0.981  0.418  0.916  1.000
  O72  O2-  0.981  0.618  0.116  1.000
  O72  O2-  0.981  0.618  0.316  1.000
  O72  O2-  0.981  0.618  0.516  1.000
  O72  O2-  0.981  0.618  0.716  1.000
  O72  O2-  0.981  0.618  0.916  1.000
  O72  O2-  0.981  0.818  0.116  1.000
  O72  O2-  0.981  0.818  0.316  1.000
  O72  O2-  0.981  0.818  0.516  1.000
  O72  O2-  0.981  0.818  0.716  1.000
  O72  O2-  0.981  0.818  0.916  1.000
  O73  O2-  0.181  0.182  0.084  1.000
  O73  O2-  0.181  0.182  0.284  1.000
  O73  O2-  0.181  0.182  0.484  1.000
  O73  O2-  0.181  0.182  0.684  1.000
  O73  O2-  0.181  0.182  0.884  1.000
  O73  O2-  0.181  0.382  0.084  1.000
  O73  O2-  0.181  0.382  0.284  1.000
  O73  O2-  0.181  0.382  0.484  1.000
  O73  O2-  0.181  0.382  0.684  1.000
  O73  O2-  0.181  0.382  0.884  1.000
  O73  O2-  0.181  0.582  0.084  1.000
  O73  O2-  0.181  0.582  0.284  1.000
  O73  O2-  0.181  0.582  0.484  1.000
  O73  O2-  0.181  0.582  0.684  1.000
  O73  O2-  0.181  0.582  0.884  1.000
  O73  O2-  0.181  0.782  0.084  1.000
  O73  O2-  0.181  0.782  0.284  1.000
  O73  O2-  0.181  0.782  0.484  1.000
  O73  O2-  0.181  0.782  0.684  1.000
  O73  O2-  0.181  0.782  0.884  1.000
  O73  O2-  0.181  0.982  0.084  1.000
  O73  O2-  0.181  0.982  0.284  1.000
  O73  O2-  0.181  0.982  0.484  1.000
  O73  O2-  0.181  0.982  0.684  1.000
  O73  O2-  0.181  0.982  0.884  1.000
  O73  O2-  0.381  0.182  0.084  1.000
  O73  O2-  0.381  0.182  0.284  1.000
  O73  O2-  0.381  0.182  0.484  1.000
  O73  O2-  0.381  0.182  0.684  1.000
  O73  O2-  0.381  0.182  0.884  1.000
  O73  O2-  0.381  0.382  0.084  1.000
  O73  O2-  0.381  0.382  0.284  1.000
  O73  O2-  0.381  0.382  0.484  1.000
  O73  O2-  0.381  0.382  0.684  1.000
  O73  O2-  0.381  0.382  0.884  1.000
  O73  O2-  0.381  0.582  0.084  1.000
  O73  O2-  0.381  0.582  0.284  1.000
  O73  O2-  0.381  0.582  0.484  1.000
  O73  O2-  0.381  0.582  0.684  1.000
  O73  O2-  0.381  0.582  0.884  1.000
  O73  O2-  0.381  0.782  0.084  1.000
  O73  O2-  0.381  0.782  0.284  1.000
  O73  O2-  0.381  0.782  0.484  1.000
  O73  O2-  0.381  0.782  0.684  1.000
  O73  O2-  0.381  0.782  0.884  1.000
  O73  O2-  0.381  0.982  0.084  1.000
  O73  O2-  0.381  0.982  0.284  1.000
  O73  O2-  0.381  0.982  0.484  1.000
  O73  O2-  0.381  0.982  0.684  1.000
  O73  O2-  0.381  0.982  0.884  1.000
  O73  O2-  0.581  0.182  0.084  1.000
  O73  O2-  0.581  0.182  0.284  1.000
  O73  O2-  0.581  0.182  0.484  1.000
  O73  O2-  0.581  0.182  0.684  1.000
  O73  O2-  0.581  0.182  0.884  1.000
  O73  O2-  0.581  0.382  0.084  1.000
  O73  O2-  0.581  0.382  0.284  1.000
  O73  O2-  0.581  0.382  0.484  1.000
  O73  O2-  0.581  0.382  0.684  1.000
  O73  O2-  0.581  0.382  0.884  1.000
  O73  O2-  0.581  0.582  0.084  1.000
  O73  O2-  0.581  0.582  0.284  1.000
  O73  O2-  0.581  0.582  0.484  1.000
  O73  O2-  0.581  0.582  0.684  1.000
  O73  O2-  0.581  0.582  0.884  1.000
  O73  O2-  0.581  0.782  0.084  1.000
  O73  O2-  0.581  0.782  0.284  1.000
  O73  O2-  0.581  0.782  0.484  1.000
  O73  O2-  0.581  0.782  0.684  1.000
  O73  O2-  0.581  0.782  0.884  1.000
  O73  O2-  0.581  0.982  0.084  1.000
  O73  O2-  0.581  0.982  0.284  1.000
  O73  O2-  0.581  0.982  0.484  1.000
  O73  O2-  0.581  0.982  0.684  1.000
  O73  O2-  0.581  0.982  0.884  1.000
  O73  O2-  0.781  0.182  0.084  1.000
  O73  O2-  0.781  0.182  0.284  1.000
  O73  O2-  0.781  0.182  0.484  1.000
  O73  O2-  0.781  0.182  0.684  1.000
  O73  O2-  0.781  0.182  0.884  1.000
  O73  O2-  0.781  0.382  0.084  1.000
  O73  O2-  0.781  0.382  0.284  1.000
  O73  O2-  0.781  0.382  0.484  1.000
  O73  O2-  0.781  0.382  0.684  1.000
  O73  O2-  0.781  0.382  0.884  1.000
  O73  O2-  0.781  0.582  0.084  1.000
  O73  O2-  0.781  0.582  0.284  1.000
  O73  O2-  0.781  0.582  0.484  1.000
  O73  O2-  0.781  0.582  0.684  1.000
  O73  O2-  0.781  0.582  0.884  1.000
  O73  O2-  0.781  0.782  0.084  1.000
  O73  O2-  0.781  0.782  0.284  1.000
  O73  O2-  0.781  0.782  0.484  1.000
  O73  O2-  0.781  0.782  0.684  1.000
  O73  O2-  0.781  0.782  0.884  1.000
  O73  O2-  0.781  0.982  0.084  1.000
  O73  O2-  0.781  0.982  0.284  1.000
  O73  O2-  0.781  0.982  0.484  1.000
  O73  O2-  0.781  0.982  0.684  1.000
  O73  O2-  0.781  0.982  0.884  1.000
  O73  O2-  0.981  0.182  0.084  1.000
  O73  O2-  0.981  0.182  0.284  1.000
  O73  O2-  0.981  0.182  0.484  1.000
  O73  O2-  0.981  0.182  0.684  1.000
  O73  O2-  0.981  0.182  0.884  1.000
  O73  O2-  0.981  0.382  0.084  1.000
  O73  O2-  0.981  0.382  0.284  1.000
  O73  O2-  0.981  0.382  0.484  1.000
  O73  O2-  0.981  0.382  0.684  1.000
  O73  O2-  0.981  0.382  0.884  1.000
  O73  O2-  0.981  0.582  0.084  1.000
  O73  O2-  0.981  0.582  0.284  1.000
  O73  O2-  0.981  0.582  0.484  1.000
  O73  O2-  0.981  0.582  0.684  1.000
  O73  O2-  0.981  0.582  0.884  1.000
  O73  O2-  0.981  0.782  0.084  1.000
  O73  O2-  0.981  0.782  0.284  1.000
  O73  O2-  0.981  0.782  0.484  1.000
  O73  O2-  0.981  0.782  0.684  1.000
  O73  O2-  0.981  0.782  0.884  1.000
  O73  O2-  0.981  0.982  0.084  1.000
  O73  O2-  0.981  0.982  0.284  1.000
  O73  O2-  0.981  0.982  0.484  1.000
  O73  O2-  0.981  0.982  0.684  1.000
  O73  O2-  0.981  0.982  0.884  1.000
  O74  O2-  0.180  0.034  0.194  1.000
  O74  O2-  0.180  0.034  0.394  1.000
  O74  O2-  0.180  0.034  0.594  1.000
  O74  O2-  0.180  0.034  0.794  1.000
  O74  O2-  0.180  0.034  0.994  1.000
  O74  O2-  0.180  0.234  0.194  1.000
  O74  O2-  0.180  0.234  0.394  1.000
  O74  O2-  0.180  0.234  0.594  1.000
  O74  O2-  0.180  0.234  0.794  1.000
  O74  O2-  0.180  0.234  0.994  1.000
  O74  O2-  0.180  0.434  0.194  1.000
  O74  O2-  0.180  0.434  0.394  1.000
  O74  O2-  0.180  0.434  0.594  1.000
  O74  O2-  0.180  0.434  0.794  1.000
  O74  O2-  0.180  0.434  0.994  1.000
  O74  O2-  0.180  0.634  0.194  1.000
  O74  O2-  0.180  0.634  0.394  1.000
  O74  O2-  0.180  0.634  0.594  1.000
  O74  O2-  0.180  0.634  0.794  1.000
  O74  O2-  0.180  0.634  0.994  1.000
  O74  O2-  0.180  0.834  0.194  1.000
  O74  O2-  0.180  0.834  0.394  1.000
  O74  O2-  0.180  0.834  0.594  1.000
  O74  O2-  0.180  0.834  0.794  1.000
  O74  O2-  0.180  0.834  0.994  1.000
  O74  O2-  0.380  0.034  0.194  1.000
  O74  O2-  0.380  0.034  0.394  1.000
  O74  O2-  0.380  0.034  0.594  1.000
  O74  O2-  0.380  0.034  0.794  1.000
  O74  O2-  0.380  0.034  0.994  1.000
  O74  O2-  0.380  0.234  0.194  1.000
  O74  O2-  0.380  0.234  0.394  1.000
  O74  O2-  0.380  0.234  0.594  1.000
  O74  O2-  0.380  0.234  0.794  1.000
  O74  O2-  0.380  0.234  0.994  1.000
  O74  O2-  0.380  0.434  0.194  1.000
  O74  O2-  0.380  0.434  0.394  1.000
  O74  O2-  0.380  0.434  0.594  1.000
  O74  O2-  0.380  0.434  0.794  1.000
  O74  O2-  0.380  0.434  0.994  1.000
  O74  O2-  0.380  0.634  0.194  1.000
  O74  O2-  0.380  0.634  0.394  1.000
  O74  O2-  0.380  0.634  0.594  1.000
  O74  O2-  0.380  0.634  0.794  1.000
  O74  O2-  0.380  0.634  0.994  1.000
  O74  O2-  0.380  0.834  0.194  1.000
  O74  O2-  0.380  0.834  0.394  1.000
  O74  O2-  0.380  0.834  0.594  1.000
  O74  O2-  0.380  0.834  0.794  1.000
  O74  O2-  0.380  0.834  0.994  1.000
  O74  O2-  0.580  0.034  0.194  1.000
  O74  O2-  0.580  0.034  0.394  1.000
  O74  O2-  0.580  0.034  0.594  1.000
  O74  O2-  0.580  0.034  0.794  1.000
  O74  O2-  0.580  0.034  0.994  1.000
  O74  O2-  0.580  0.234  0.194  1.000
  O74  O2-  0.580  0.234  0.394  1.000
  O74  O2-  0.580  0.234  0.594  1.000
  O74  O2-  0.580  0.234  0.794  1.000
  O74  O2-  0.580  0.234  0.994  1.000
  O74  O2-  0.580  0.434  0.194  1.000
  O74  O2-  0.580  0.434  0.394  1.000
  O74  O2-  0.580  0.434  0.594  1.000
  O74  O2-  0.580  0.434  0.794  1.000
  O74  O2-  0.580  0.434  0.994  1.000
  O74  O2-  0.580  0.634  0.194  1.000
  O74  O2-  0.580  0.634  0.394  1.000
  O74  O2-  0.580  0.634  0.594  1.000
  O74  O2-  0.580  0.634  0.794  1.000
  O74  O2-  0.580  0.634  0.994  1.000
  O74  O2-  0.580  0.834  0.194  1.000
  O74  O2-  0.580  0.834  0.394  1.000
  O74  O2-  0.580  0.834  0.594  1.000
  O74  O2-  0.580  0.834  0.794  1.000
  O74  O2-  0.580  0.834  0.994  1.000
  O74  O2-  0.780  0.034  0.194  1.000
  O74  O2-  0.780  0.034  0.394  1.000
  O74  O2-  0.780  0.034  0.594  1.000
  O74  O2-  0.780  0.034  0.794  1.000
  O74  O2-  0.780  0.034  0.994  1.000
  O74  O2-  0.780  0.234  0.194  1.000
  O74  O2-  0.780  0.234  0.394  1.000
  O74  O2-  0.780  0.234  0.594  1.000
  O74  O2-  0.780  0.234  0.794  1.000
  O74  O2-  0.780  0.234  0.994  1.000
  O74  O2-  0.780  0.434  0.194  1.000
  O74  O2-  0.780  0.434  0.394  1.000
  O74  O2-  0.780  0.434  0.594  1.000
  O74  O2-  0.780  0.434  0.794  1.000
  O74  O2-  0.780  0.434  0.994  1.000
  O74  O2-  0.780  0.634  0.194  1.000
  O74  O2-  0.780  0.634  0.394  1.000
  O74  O2-  0.780  0.634  0.594  1.000
  O74  O2-  0.780  0.634  0.794  1.000
  O74  O2-  0.780  0.634  0.994  1.000
  O74  O2-  0.780  0.834  0.194  1.000
  O74  O2-  0.780  0.834  0.394  1.000
  O74  O2-  0.780  0.834  0.594  1.000
  O74  O2-  0.780  0.834  0.794  1.000
  O74  O2-  0.780  0.834  0.994  1.000
  O74  O2-  0.980  0.034  0.194  1.000
  O74  O2-  0.980  0.034  0.394  1.000
  O74  O2-  0.980  0.034  0.594  1.000
  O74  O2-  0.980  0.034  0.794  1.000
  O74  O2-  0.980  0.034  0.994  1.000
  O74  O2-  0.980  0.234  0.194  1.000
  O74  O2-  0.980  0.234  0.394  1.000
  O74  O2-  0.980  0.234  0.594  1.000
  O74  O2-  0.980  0.234  0.794  1.000
  O74  O2-  0.980  0.234  0.994  1.000
  O74  O2-  0.980  0.434  0.194  1.000
  O74  O2-  0.980  0.434  0.394  1.000
  O74  O2-  0.980  0.434  0.594  1.000
  O74  O2-  0.980  0.434  0.794  1.000
  O74  O2-  0.980  0.434  0.994  1.000
  O74  O2-  0.980  0.634  0.194  1.000
  O74  O2-  0.980  0.634  0.394  1.000
  O74  O2-  0.980  0.634  0.594  1.000
  O74  O2-  0.980  0.634  0.794  1.000
  O74  O2-  0.980  0.634  0.994  1.000
  O74  O2-  0.980  0.834  0.194  1.000
  O74  O2-  0.980  0.834  0.394  1.000
  O74  O2-  0.980  0.834  0.594  1.000
  O74  O2-  0.980  0.834  0.794  1.000
  O74  O2-  0.980  0.834  0.994  1.000
  O75  O2-  0.180  0.166  0.006  1.000
  O75  O2-  0.180  0.166  0.206  1.000
  O75  O2-  0.180  0.166  0.406  1.000
  O75  O2-  0.180  0.166  0.606  1.000
  O75  O2-  0.180  0.166  0.806  1.000
  O75  O2-  0.180  0.366  0.006  1.000
  O75  O2-  0.180  0.366  0.206  1.000
  O75  O2-  0.180  0.366  0.406  1.000
  O75  O2-  0.180  0.366  0.606  1.000
  O75  O2-  0.180  0.366  0.806  1.000
  O75  O2-  0.180  0.566  0.006  1.000
  O75  O2-  0.180  0.566  0.206  1.000
  O75  O2-  0.180  0.566  0.406  1.000
  O75  O2-  0.180  0.566  0.606  1.000
  O75  O2-  0.180  0.566  0.806  1.000
  O75  O2-  0.180  0.766  0.006  1.000
  O75  O2-  0.180  0.766  0.206  1.000
  O75  O2-  0.180  0.766  0.406  1.000
  O75  O2-  0.180  0.766  0.606  1.000
  O75  O2-  0.180  0.766  0.806  1.000
  O75  O2-  0.180  0.966  0.006  1.000
  O75  O2-  0.180  0.966  0.206  1.000
  O75  O2-  0.180  0.966  0.406  1.000
  O75  O2-  0.180  0.966  0.606  1.000
  O75  O2-  0.180  0.966  0.806  1.000
  O75  O2-  0.380  0.166  0.006  1.000
  O75  O2-  0.380  0.166  0.206  1.000
  O75  O2-  0.380  0.166  0.406  1.000
  O75  O2-  0.380  0.166  0.606  1.000
  O75  O2-  0.380  0.166  0.806  1.000
  O75  O2-  0.380  0.366  0.006  1.000
  O75  O2-  0.380  0.366  0.206  1.000
  O75  O2-  0.380  0.366  0.406  1.000
  O75  O2-  0.380  0.366  0.606  1.000
  O75  O2-  0.380  0.366  0.806  1.000
  O75  O2-  0.380  0.566  0.006  1.000
  O75  O2-  0.380  0.566  0.206  1.000
  O75  O2-  0.380  0.566  0.406  1.000
  O75  O2-  0.380  0.566  0.606  1.000
  O75  O2-  0.380  0.566  0.806  1.000
  O75  O2-  0.380  0.766  0.006  1.000
  O75  O2-  0.380  0.766  0.206  1.000
  O75  O2-  0.380  0.766  0.406  1.000
  O75  O2-  0.380  0.766  0.606  1.000
  O75  O2-  0.380  0.766  0.806  1.000
  O75  O2-  0.380  0.966  0.006  1.000
  O75  O2-  0.380  0.966  0.206  1.000
  O75  O2-  0.380  0.966  0.406  1.000
  O75  O2-  0.380  0.966  0.606  1.000
  O75  O2-  0.380  0.966  0.806  1.000
  O75  O2-  0.580  0.166  0.006  1.000
  O75  O2-  0.580  0.166  0.206  1.000
  O75  O2-  0.580  0.166  0.406  1.000
  O75  O2-  0.580  0.166  0.606  1.000
  O75  O2-  0.580  0.166  0.806  1.000
  O75  O2-  0.580  0.366  0.006  1.000
  O75  O2-  0.580  0.366  0.206  1.000
  O75  O2-  0.580  0.366  0.406  1.000
  O75  O2-  0.580  0.366  0.606  1.000
  O75  O2-  0.580  0.366  0.806  1.000
  O75  O2-  0.580  0.566  0.006  1.000
  O75  O2-  0.580  0.566  0.206  1.000
  O75  O2-  0.580  0.566  0.406  1.000
  O75  O2-  0.580  0.566  0.606  1.000
  O75  O2-  0.580  0.566  0.806  1.000
  O75  O2-  0.580  0.766  0.006  1.000
  O75  O2-  0.580  0.766  0.206  1.000
  O75  O2-  0.580  0.766  0.406  1.000
  O75  O2-  0.580  0.766  0.606  1.000
  O75  O2-  0.580  0.766  0.806  1.000
  O75  O2-  0.580  0.966  0.006  1.000
  O75  O2-  0.580  0.966  0.206  1.000
  O75  O2-  0.580  0.966  0.406  1.000
  O75  O2-  0.580  0.966  0.606  1.000
  O75  O2-  0.580  0.966  0.806  1.000
  O75  O2-  0.780  0.166  0.006  1.000
  O75  O2-  0.780  0.166  0.206  1.000
  O75  O2-  0.780  0.166  0.406  1.000
  O75  O2-  0.780  0.166  0.606  1.000
  O75  O2-  0.780  0.166  0.806  1.000
  O75  O2-  0.780  0.366  0.006  1.000
  O75  O2-  0.780  0.366  0.206  1.000
  O75  O2-  0.780  0.366  0.406  1.000
  O75  O2-  0.780  0.366  0.606  1.000
  O75  O2-  0.780  0.366  0.806  1.000
  O75  O2-  0.780  0.566  0.006  1.000
  O75  O2-  0.780  0.566  0.206  1.000
  O75  O2-  0.780  0.566  0.406  1.000
  O75  O2-  0.780  0.566  0.606  1.000
  O75  O2-  0.780  0.566  0.806  1.000
  O75  O2-  0.780  0.766  0.006  1.000
  O75  O2-  0.780  0.766  0.206  1.000
  O75  O2-  0.780  0.766  0.406  1.000
  O75  O2-  0.780  0.766  0.606  1.000
  O75  O2-  0.780  0.766  0.806  1.000
  O75  O2-  0.780  0.966  0.006  1.000
  O75  O2-  0.780  0.966  0.206  1.000
  O75  O2-  0.780  0.966  0.406  1.000
  O75  O2-  0.780  0.966  0.606  1.000
  O75  O2-  0.780  0.966  0.806  1.000
  O75  O2-  0.980  0.166  0.006  1.000
  O75  O2-  0.980  0.166  0.206  1.000
  O75  O2-  0.980  0.166  0.406  1.000
  O75  O2-  0.980  0.166  0.606  1.000
  O75  O2-  0.980  0.166  0.806  1.000
  O75  O2-  0.980  0.366  0.006  1.000
  O75  O2-  0.980  0.366  0.206  1.000
  O75  O2-  0.980  0.366  0.406  1.000
  O75  O2-  0.980  0.366  0.606  1.000
  O75  O2-  0.980  0.366  0.806  1.000
  O75  O2-  0.980  0.566  0.006  1.000
  O75  O2-  0.980  0.566  0.206  1.000
  O75  O2-  0.980  0.566  0.406  1.000
  O75  O2-  0.980  0.566  0.606  1.000
  O75  O2-  0.980  0.566  0.806  1.000
  O75  O2-  0.980  0.766  0.006  1.000
  O75  O2-  0.980  0.766  0.206  1.000
  O75  O2-  0.980  0.766  0.406  1.000
  O75  O2-  0.980  0.766  0.606  1.000
  O75  O2-  0.980  0.766  0.806  1.000
  O75  O2-  0.980  0.966  0.006  1.000
  O75  O2-  0.980  0.966  0.206  1.000
  O75  O2-  0.980  0.966  0.406  1.000
  O75  O2-  0.980  0.966  0.606  1.000
  O75  O2-  0.980  0.966  0.806  1.000
  O76  O2-  0.164  0.069  0.033  1.000
  O76  O2-  0.164  0.069  0.233  1.000
  O76  O2-  0.164  0.069  0.433  1.000
  O76  O2-  0.164  0.069  0.633  1.000
  O76  O2-  0.164  0.069  0.833  1.000
  O76  O2-  0.164  0.269  0.033  1.000
  O76  O2-  0.164  0.269  0.233  1.000
  O76  O2-  0.164  0.269  0.433  1.000
  O76  O2-  0.164  0.269  0.633  1.000
  O76  O2-  0.164  0.269  0.833  1.000
  O76  O2-  0.164  0.469  0.033  1.000
  O76  O2-  0.164  0.469  0.233  1.000
  O76  O2-  0.164  0.469  0.433  1.000
  O76  O2-  0.164  0.469  0.633  1.000
  O76  O2-  0.164  0.469  0.833  1.000
  O76  O2-  0.164  0.669  0.033  1.000
  O76  O2-  0.164  0.669  0.233  1.000
  O76  O2-  0.164  0.669  0.433  1.000
  O76  O2-  0.164  0.669  0.633  1.000
  O76  O2-  0.164  0.669  0.833  1.000
  O76  O2-  0.164  0.869  0.033  1.000
  O76  O2-  0.164  0.869  0.233  1.000
  O76  O2-  0.164  0.869  0.433  1.000
  O76  O2-  0.164  0.869  0.633  1.000
  O76  O2-  0.164  0.869  0.833  1.000
  O76  O2-  0.364  0.069  0.033  1.000
  O76  O2-  0.364  0.069  0.233  1.000
  O76  O2-  0.364  0.069  0.433  1.000
  O76  O2-  0.364  0.069  0.633  1.000
  O76  O2-  0.364  0.069  0.833  1.000
  O76  O2-  0.364  0.269  0.033  1.000
  O76  O2-  0.364  0.269  0.233  1.000
  O76  O2-  0.364  0.269  0.433  1.000
  O76  O2-  0.364  0.269  0.633  1.000
  O76  O2-  0.364  0.269  0.833  1.000
  O76  O2-  0.364  0.469  0.033  1.000
  O76  O2-  0.364  0.469  0.233  1.000
  O76  O2-  0.364  0.469  0.433  1.000
  O76  O2-  0.364  0.469  0.633  1.000
  O76  O2-  0.364  0.469  0.833  1.000
  O76  O2-  0.364  0.669  0.033  1.000
  O76  O2-  0.364  0.669  0.233  1.000
  O76  O2-  0.364  0.669  0.433  1.000
  O76  O2-  0.364  0.669  0.633  1.000
  O76  O2-  0.364  0.669  0.833  1.000
  O76  O2-  0.364  0.869  0.033  1.000
  O76  O2-  0.364  0.869  0.233  1.000
  O76  O2-  0.364  0.869  0.433  1.000
  O76  O2-  0.364  0.869  0.633  1.000
  O76  O2-  0.364  0.869  0.833  1.000
  O76  O2-  0.564  0.069  0.033  1.000
  O76  O2-  0.564  0.069  0.233  1.000
  O76  O2-  0.564  0.069  0.433  1.000
  O76  O2-  0.564  0.069  0.633  1.000
  O76  O2-  0.564  0.069  0.833  1.000
  O76  O2-  0.564  0.269  0.033  1.000
  O76  O2-  0.564  0.269  0.233  1.000
  O76  O2-  0.564  0.269  0.433  1.000
  O76  O2-  0.564  0.269  0.633  1.000
  O76  O2-  0.564  0.269  0.833  1.000
  O76  O2-  0.564  0.469  0.033  1.000
  O76  O2-  0.564  0.469  0.233  1.000
  O76  O2-  0.564  0.469  0.433  1.000
  O76  O2-  0.564  0.469  0.633  1.000
  O76  O2-  0.564  0.469  0.833  1.000
  O76  O2-  0.564  0.669  0.033  1.000
  O76  O2-  0.564  0.669  0.233  1.000
  O76  O2-  0.564  0.669  0.433  1.000
  O76  O2-  0.564  0.669  0.633  1.000
  O76  O2-  0.564  0.669  0.833  1.000
  O76  O2-  0.564  0.869  0.033  1.000
  O76  O2-  0.564  0.869  0.233  1.000
  O76  O2-  0.564  0.869  0.433  1.000
  O76  O2-  0.564  0.869  0.633  1.000
  O76  O2-  0.564  0.869  0.833  1.000
  O76  O2-  0.764  0.069  0.033  1.000
  O76  O2-  0.764  0.069  0.233  1.000
  O76  O2-  0.764  0.069  0.433  1.000
  O76  O2-  0.764  0.069  0.633  1.000
  O76  O2-  0.764  0.069  0.833  1.000
  O76  O2-  0.764  0.269  0.033  1.000
  O76  O2-  0.764  0.269  0.233  1.000
  O76  O2-  0.764  0.269  0.433  1.000
  O76  O2-  0.764  0.269  0.633  1.000
  O76  O2-  0.764  0.269  0.833  1.000
  O76  O2-  0.764  0.469  0.033  1.000
  O76  O2-  0.764  0.469  0.233  1.000
  O76  O2-  0.764  0.469  0.433  1.000
  O76  O2-  0.764  0.469  0.633  1.000
  O76  O2-  0.764  0.469  0.833  1.000
  O76  O2-  0.764  0.669  0.033  1.000
  O76  O2-  0.764  0.669  0.233  1.000
  O76  O2-  0.764  0.669  0.433  1.000
  O76  O2-  0.764  0.669  0.633  1.000
  O76  O2-  0.764  0.669  0.833  1.000
  O76  O2-  0.764  0.869  0.033  1.000
  O76  O2-  0.764  0.869  0.233  1.000
  O76  O2-  0.764  0.869  0.433  1.000
  O76  O2-  0.764  0.869  0.633  1.000
  O76  O2-  0.764  0.869  0.833  1.000
  O76  O2-  0.964  0.069  0.033  1.000
  O76  O2-  0.964  0.069  0.233  1.000
  O76  O2-  0.964  0.069  0.433  1.000
  O76  O2-  0.964  0.069  0.633  1.000
  O76  O2-  0.964  0.069  0.833  1.000
  O76  O2-  0.964  0.269  0.033  1.000
  O76  O2-  0.964  0.269  0.233  1.000
  O76  O2-  0.964  0.269  0.433  1.000
  O76  O2-  0.964  0.269  0.633  1.000
  O76  O2-  0.964  0.269  0.833  1.000
  O76  O2-  0.964  0.469  0.033  1.000
  O76  O2-  0.964  0.469  0.233  1.000
  O76  O2-  0.964  0.469  0.433  1.000
  O76  O2-  0.964  0.469  0.633  1.000
  O76  O2-  0.964  0.469  0.833  1.000
  O76  O2-  0.964  0.669  0.033  1.000
  O76  O2-  0.964  0.669  0.233  1.000
  O76  O2-  0.964  0.669  0.433  1.000
  O76  O2-  0.964  0.669  0.633  1.000
  O76  O2-  0.964  0.669  0.833  1.000
  O76  O2-  0.964  0.869  0.033  1.000
  O76  O2-  0.964  0.869  0.233  1.000
  O76  O2-  0.964  0.869  0.433  1.000
  O76  O2-  0.964  0.869  0.633  1.000
  O76  O2-  0.964  0.869  0.833  1.000
  O77  O2-  0.164  0.131  0.167  1.000
  O77  O2-  0.164  0.131  0.367  1.000
  O77  O2-  0.164  0.131  0.567  1.000
  O77  O2-  0.164  0.131  0.767  1.000
  O77  O2-  0.164  0.131  0.967  1.000
  O77  O2-  0.164  0.331  0.167  1.000
  O77  O2-  0.164  0.331  0.367  1.000
  O77  O2-  0.164  0.331  0.567  1.000
  O77  O2-  0.164  0.331  0.767  1.000
  O77  O2-  0.164  0.331  0.967  1.000
  O77  O2-  0.164  0.531  0.167  1.000
  O77  O2-  0.164  0.531  0.367  1.000
  O77  O2-  0.164  0.531  0.567  1.000
  O77  O2-  0.164  0.531  0.767  1.000
  O77  O2-  0.164  0.531  0.967  1.000
  O77  O2-  0.164  0.731  0.167  1.000
  O77  O2-  0.164  0.731  0.367  1.000
  O77  O2-  0.164  0.731  0.567  1.000
  O77  O2-  0.164  0.731  0.767  1.000
  O77  O2-  0.164  0.731  0.967  1.000
  O77  O2-  0.164  0.931  0.167  1.000
  O77  O2-  0.164  0.931  0.367  1.000
  O77  O2-  0.164  0.931  0.567  1.000
  O77  O2-  0.164  0.931  0.767  1.000
  O77  O2-  0.164  0.931  0.967  1.000
  O77  O2-  0.364  0.131  0.167  1.000
  O77  O2-  0.364  0.131  0.367  1.000
  O77  O2-  0.364  0.131  0.567  1.000
  O77  O2-  0.364  0.131  0.767  1.000
  O77  O2-  0.364  0.131  0.967  1.000
  O77  O2-  0.364  0.331  0.167  1.000
  O77  O2-  0.364  0.331  0.367  1.000
  O77  O2-  0.364  0.331  0.567  1.000
  O77  O2-  0.364  0.331  0.767  1.000
  O77  O2-  0.364  0.331  0.967  1.000
  O77  O2-  0.364  0.531  0.167  1.000
  O77  O2-  0.364  0.531  0.367  1.000
  O77  O2-  0.364  0.531  0.567  1.000
  O77  O2-  0.364  0.531  0.767  1.000
  O77  O2-  0.364  0.531  0.967  1.000
  O77  O2-  0.364  0.731  0.167  1.000
  O77  O2-  0.364  0.731  0.367  1.000
  O77  O2-  0.364  0.731  0.567  1.000
  O77  O2-  0.364  0.731  0.767  1.000
  O77  O2-  0.364  0.731  0.967  1.000
  O77  O2-  0.364  0.931  0.167  1.000
  O77  O2-  0.364  0.931  0.367  1.000
  O77  O2-  0.364  0.931  0.567  1.000
  O77  O2-  0.364  0.931  0.767  1.000
  O77  O2-  0.364  0.931  0.967  1.000
  O77  O2-  0.564  0.131  0.167  1.000
  O77  O2-  0.564  0.131  0.367  1.000
  O77  O2-  0.564  0.131  0.567  1.000
  O77  O2-  0.564  0.131  0.767  1.000
  O77  O2-  0.564  0.131  0.967  1.000
  O77  O2-  0.564  0.331  0.167  1.000
  O77  O2-  0.564  0.331  0.367  1.000
  O77  O2-  0.564  0.331  0.567  1.000
  O77  O2-  0.564  0.331  0.767  1.000
  O77  O2-  0.564  0.331  0.967  1.000
  O77  O2-  0.564  0.531  0.167  1.000
  O77  O2-  0.564  0.531  0.367  1.000
  O77  O2-  0.564  0.531  0.567  1.000
  O77  O2-  0.564  0.531  0.767  1.000
  O77  O2-  0.564  0.531  0.967  1.000
  O77  O2-  0.564  0.731  0.167  1.000
  O77  O2-  0.564  0.731  0.367  1.000
  O77  O2-  0.564  0.731  0.567  1.000
  O77  O2-  0.564  0.731  0.767  1.000
  O77  O2-  0.564  0.731  0.967  1.000
  O77  O2-  0.564  0.931  0.167  1.000
  O77  O2-  0.564  0.931  0.367  1.000
  O77  O2-  0.564  0.931  0.567  1.000
  O77  O2-  0.564  0.931  0.767  1.000
  O77  O2-  0.564  0.931  0.967  1.000
  O77  O2-  0.764  0.131  0.167  1.000
  O77  O2-  0.764  0.131  0.367  1.000
  O77  O2-  0.764  0.131  0.567  1.000
  O77  O2-  0.764  0.131  0.767  1.000
  O77  O2-  0.764  0.131  0.967  1.000
  O77  O2-  0.764  0.331  0.167  1.000
  O77  O2-  0.764  0.331  0.367  1.000
  O77  O2-  0.764  0.331  0.567  1.000
  O77  O2-  0.764  0.331  0.767  1.000
  O77  O2-  0.764  0.331  0.967  1.000
  O77  O2-  0.764  0.531  0.167  1.000
  O77  O2-  0.764  0.531  0.367  1.000
  O77  O2-  0.764  0.531  0.567  1.000
  O77  O2-  0.764  0.531  0.767  1.000
  O77  O2-  0.764  0.531  0.967  1.000
  O77  O2-  0.764  0.731  0.167  1.000
  O77  O2-  0.764  0.731  0.367  1.000
  O77  O2-  0.764  0.731  0.567  1.000
  O77  O2-  0.764  0.731  0.767  1.000
  O77  O2-  0.764  0.731  0.967  1.000
  O77  O2-  0.764  0.931  0.167  1.000
  O77  O2-  0.764  0.931  0.367  1.000
  O77  O2-  0.764  0.931  0.567  1.000
  O77  O2-  0.764  0.931  0.767  1.000
  O77  O2-  0.764  0.931  0.967  1.000
  O77  O2-  0.964  0.131  0.167  1.000
  O77  O2-  0.964  0.131  0.367  1.000
  O77  O2-  0.964  0.131  0.567  1.000
  O77  O2-  0.964  0.131  0.767  1.000
  O77  O2-  0.964  0.131  0.967  1.000
  O77  O2-  0.964  0.331  0.167  1.000
  O77  O2-  0.964  0.331  0.367  1.000
  O77  O2-  0.964  0.331  0.567  1.000
  O77  O2-  0.964  0.331  0.767  1.000
  O77  O2-  0.964  0.331  0.967  1.000
  O77  O2-  0.964  0.531  0.167  1.000
  O77  O2-  0.964  0.531  0.367  1.000
  O77  O2-  0.964  0.531  0.567  1.000
  O77  O2-  0.964  0.531  0.767  1.000
  O77  O2-  0.964  0.531  0.967  1.000
  O77  O2-  0.964  0.731  0.167  1.000
  O77  O2-  0.964  0.731  0.367  1.000
  O77  O2-  0.964  0.731  0.567  1.000
  O77  O2-  0.964  0.731  0.767  1.000
  O77  O2-  0.964  0.731  0.967  1.000
  O77  O2-  0.964  0.931  0.167  1.000
  O77  O2-  0.964  0.931  0.367  1.000
  O77  O2-  0.964  0.931  0.567  1.000
  O77  O2-  0.964  0.931  0.767  1.000
  O77  O2-  0.964  0.931  0.967  1.000
  O78  O2-  0.160  0.079  0.115  1.000
  O78  O2-  0.160  0.079  0.315  1.000
  O78  O2-  0.160  0.079  0.515  1.000
  O78  O2-  0.160  0.079  0.715  1.000
  O78  O2-  0.160  0.079  0.915  1.000
  O78  O2-  0.160  0.279  0.115  1.000
  O78  O2-  0.160  0.279  0.315  1.000
  O78  O2-  0.160  0.279  0.515  1.000
  O78  O2-  0.160  0.279  0.715  1.000
  O78  O2-  0.160  0.279  0.915  1.000
  O78  O2-  0.160  0.479  0.115  1.000
  O78  O2-  0.160  0.479  0.315  1.000
  O78  O2-  0.160  0.479  0.515  1.000
  O78  O2-  0.160  0.479  0.715  1.000
  O78  O2-  0.160  0.479  0.915  1.000
  O78  O2-  0.160  0.679  0.115  1.000
  O78  O2-  0.160  0.679  0.315  1.000
  O78  O2-  0.160  0.679  0.515  1.000
  O78  O2-  0.160  0.679  0.715  1.000
  O78  O2-  0.160  0.679  0.915  1.000
  O78  O2-  0.160  0.879  0.115  1.000
  O78  O2-  0.160  0.879  0.315  1.000
  O78  O2-  0.160  0.879  0.515  1.000
  O78  O2-  0.160  0.879  0.715  1.000
  O78  O2-  0.160  0.879  0.915  1.000
  O78  O2-  0.360  0.079  0.115  1.000
  O78  O2-  0.360  0.079  0.315  1.000
  O78  O2-  0.360  0.079  0.515  1.000
  O78  O2-  0.360  0.079  0.715  1.000
  O78  O2-  0.360  0.079  0.915  1.000
  O78  O2-  0.360  0.279  0.115  1.000
  O78  O2-  0.360  0.279  0.315  1.000
  O78  O2-  0.360  0.279  0.515  1.000
  O78  O2-  0.360  0.279  0.715  1.000
  O78  O2-  0.360  0.279  0.915  1.000
  O78  O2-  0.360  0.479  0.115  1.000
  O78  O2-  0.360  0.479  0.315  1.000
  O78  O2-  0.360  0.479  0.515  1.000
  O78  O2-  0.360  0.479  0.715  1.000
  O78  O2-  0.360  0.479  0.915  1.000
  O78  O2-  0.360  0.679  0.115  1.000
  O78  O2-  0.360  0.679  0.315  1.000
  O78  O2-  0.360  0.679  0.515  1.000
  O78  O2-  0.360  0.679  0.715  1.000
  O78  O2-  0.360  0.679  0.915  1.000
  O78  O2-  0.360  0.879  0.115  1.000
  O78  O2-  0.360  0.879  0.315  1.000
  O78  O2-  0.360  0.879  0.515  1.000
  O78  O2-  0.360  0.879  0.715  1.000
  O78  O2-  0.360  0.879  0.915  1.000
  O78  O2-  0.560  0.079  0.115  1.000
  O78  O2-  0.560  0.079  0.315  1.000
  O78  O2-  0.560  0.079  0.515  1.000
  O78  O2-  0.560  0.079  0.715  1.000
  O78  O2-  0.560  0.079  0.915  1.000
  O78  O2-  0.560  0.279  0.115  1.000
  O78  O2-  0.560  0.279  0.315  1.000
  O78  O2-  0.560  0.279  0.515  1.000
  O78  O2-  0.560  0.279  0.715  1.000
  O78  O2-  0.560  0.279  0.915  1.000
  O78  O2-  0.560  0.479  0.115  1.000
  O78  O2-  0.560  0.479  0.315  1.000
  O78  O2-  0.560  0.479  0.515  1.000
  O78  O2-  0.560  0.479  0.715  1.000
  O78  O2-  0.560  0.479  0.915  1.000
  O78  O2-  0.560  0.679  0.115  1.000
  O78  O2-  0.560  0.679  0.315  1.000
  O78  O2-  0.560  0.679  0.515  1.000
  O78  O2-  0.560  0.679  0.715  1.000
  O78  O2-  0.560  0.679  0.915  1.000
  O78  O2-  0.560  0.879  0.115  1.000
  O78  O2-  0.560  0.879  0.315  1.000
  O78  O2-  0.560  0.879  0.515  1.000
  O78  O2-  0.560  0.879  0.715  1.000
  O78  O2-  0.560  0.879  0.915  1.000
  O78  O2-  0.760  0.079  0.115  1.000
  O78  O2-  0.760  0.079  0.315  1.000
  O78  O2-  0.760  0.079  0.515  1.000
  O78  O2-  0.760  0.079  0.715  1.000
  O78  O2-  0.760  0.079  0.915  1.000
  O78  O2-  0.760  0.279  0.115  1.000
  O78  O2-  0.760  0.279  0.315  1.000
  O78  O2-  0.760  0.279  0.515  1.000
  O78  O2-  0.760  0.279  0.715  1.000
  O78  O2-  0.760  0.279  0.915  1.000
  O78  O2-  0.760  0.479  0.115  1.000
  O78  O2-  0.760  0.479  0.315  1.000
  O78  O2-  0.760  0.479  0.515  1.000
  O78  O2-  0.760  0.479  0.715  1.000
  O78  O2-  0.760  0.479  0.915  1.000
  O78  O2-  0.760  0.679  0.115  1.000
  O78  O2-  0.760  0.679  0.315  1.000
  O78  O2-  0.760  0.679  0.515  1.000
  O78  O2-  0.760  0.679  0.715  1.000
  O78  O2-  0.760  0.679  0.915  1.000
  O78  O2-  0.760  0.879  0.115  1.000
  O78  O2-  0.760  0.879  0.315  1.000
  O78  O2-  0.760  0.879  0.515  1.000
  O78  O2-  0.760  0.879  0.715  1.000
  O78  O2-  0.760  0.879  0.915  1.000
  O78  O2-  0.960  0.079  0.115  1.000
  O78  O2-  0.960  0.079  0.315  1.000
  O78  O2-  0.960  0.079  0.515  1.000
  O78  O2-  0.960  0.079  0.715  1.000
  O78  O2-  0.960  0.079  0.915  1.000
  O78  O2-  0.960  0.279  0.115  1.000
  O78  O2-  0.960  0.279  0.315  1.000
  O78  O2-  0.960  0.279  0.515  1.000
  O78  O2-  0.960  0.279  0.715  1.000
  O78  O2-  0.960  0.279  0.915  1.000
  O78  O2-  0.960  0.479  0.115  1.000
  O78  O2-  0.960  0.479  0.315  1.000
  O78  O2-  0.960  0.479  0.515  1.000
  O78  O2-  0.960  0.479  0.715  1.000
  O78  O2-  0.960  0.479  0.915  1.000
  O78  O2-  0.960  0.679  0.115  1.000
  O78  O2-  0.960  0.679  0.315  1.000
  O78  O2-  0.960  0.679  0.515  1.000
  O78  O2-  0.960  0.679  0.715  1.000
  O78  O2-  0.960  0.679  0.915  1.000
  O78  O2-  0.960  0.879  0.115  1.000
  O78  O2-  0.960  0.879  0.315  1.000
  O78  O2-  0.960  0.879  0.515  1.000
  O78  O2-  0.960  0.879  0.715  1.000
  O78  O2-  0.960  0.879  0.915  1.000
  O79  O2-  0.160  0.121  0.085  1.000
  O79  O2-  0.160  0.121  0.285  1.000
  O79  O2-  0.160  0.121  0.485  1.000
  O79  O2-  0.160  0.121  0.685  1.000
  O79  O2-  0.160  0.121  0.885  1.000
  O79  O2-  0.160  0.321  0.085  1.000
  O79  O2-  0.160  0.321  0.285  1.000
  O79  O2-  0.160  0.321  0.485  1.000
  O79  O2-  0.160  0.321  0.685  1.000
  O79  O2-  0.160  0.321  0.885  1.000
  O79  O2-  0.160  0.521  0.085  1.000
  O79  O2-  0.160  0.521  0.285  1.000
  O79  O2-  0.160  0.521  0.485  1.000
  O79  O2-  0.160  0.521  0.685  1.000
  O79  O2-  0.160  0.521  0.885  1.000
  O79  O2-  0.160  0.721  0.085  1.000
  O79  O2-  0.160  0.721  0.285  1.000
  O79  O2-  0.160  0.721  0.485  1.000
  O79  O2-  0.160  0.721  0.685  1.000
  O79  O2-  0.160  0.721  0.885  1.000
  O79  O2-  0.160  0.921  0.085  1.000
  O79  O2-  0.160  0.921  0.285  1.000
  O79  O2-  0.160  0.921  0.485  1.000
  O79  O2-  0.160  0.921  0.685  1.000
  O79  O2-  0.160  0.921  0.885  1.000
  O79  O2-  0.360  0.121  0.085  1.000
  O79  O2-  0.360  0.121  0.285  1.000
  O79  O2-  0.360  0.121  0.485  1.000
  O79  O2-  0.360  0.121  0.685  1.000
  O79  O2-  0.360  0.121  0.885  1.000
  O79  O2-  0.360  0.321  0.085  1.000
  O79  O2-  0.360  0.321  0.285  1.000
  O79  O2-  0.360  0.321  0.485  1.000
  O79  O2-  0.360  0.321  0.685  1.000
  O79  O2-  0.360  0.321  0.885  1.000
  O79  O2-  0.360  0.521  0.085  1.000
  O79  O2-  0.360  0.521  0.285  1.000
  O79  O2-  0.360  0.521  0.485  1.000
  O79  O2-  0.360  0.521  0.685  1.000
  O79  O2-  0.360  0.521  0.885  1.000
  O79  O2-  0.360  0.721  0.085  1.000
  O79  O2-  0.360  0.721  0.285  1.000
  O79  O2-  0.360  0.721  0.485  1.000
  O79  O2-  0.360  0.721  0.685  1.000
  O79  O2-  0.360  0.721  0.885  1.000
  O79  O2-  0.360  0.921  0.085  1.000
  O79  O2-  0.360  0.921  0.285  1.000
  O79  O2-  0.360  0.921  0.485  1.000
  O79  O2-  0.360  0.921  0.685  1.000
  O79  O2-  0.360  0.921  0.885  1.000
  O79  O2-  0.560  0.121  0.085  1.000
  O79  O2-  0.560  0.121  0.285  1.000
  O79  O2-  0.560  0.121  0.485  1.000
  O79  O2-  0.560  0.121  0.685  1.000
  O79  O2-  0.560  0.121  0.885  1.000
  O79  O2-  0.560  0.321  0.085  1.000
  O79  O2-  0.560  0.321  0.285  1.000
  O79  O2-  0.560  0.321  0.485  1.000
  O79  O2-  0.560  0.321  0.685  1.000
  O79  O2-  0.560  0.321  0.885  1.000
  O79  O2-  0.560  0.521  0.085  1.000
  O79  O2-  0.560  0.521  0.285  1.000
  O79  O2-  0.560  0.521  0.485  1.000
  O79  O2-  0.560  0.521  0.685  1.000
  O79  O2-  0.560  0.521  0.885  1.000
  O79  O2-  0.560  0.721  0.085  1.000
  O79  O2-  0.560  0.721  0.285  1.000
  O79  O2-  0.560  0.721  0.485  1.000
  O79  O2-  0.560  0.721  0.685  1.000
  O79  O2-  0.560  0.721  0.885  1.000
  O79  O2-  0.560  0.921  0.085  1.000
  O79  O2-  0.560  0.921  0.285  1.000
  O79  O2-  0.560  0.921  0.485  1.000
  O79  O2-  0.560  0.921  0.685  1.000
  O79  O2-  0.560  0.921  0.885  1.000
  O79  O2-  0.760  0.121  0.085  1.000
  O79  O2-  0.760  0.121  0.285  1.000
  O79  O2-  0.760  0.121  0.485  1.000
  O79  O2-  0.760  0.121  0.685  1.000
  O79  O2-  0.760  0.121  0.885  1.000
  O79  O2-  0.760  0.321  0.085  1.000
  O79  O2-  0.760  0.321  0.285  1.000
  O79  O2-  0.760  0.321  0.485  1.000
  O79  O2-  0.760  0.321  0.685  1.000
  O79  O2-  0.760  0.321  0.885  1.000
  O79  O2-  0.760  0.521  0.085  1.000
  O79  O2-  0.760  0.521  0.285  1.000
  O79  O2-  0.760  0.521  0.485  1.000
  O79  O2-  0.760  0.521  0.685  1.000
  O79  O2-  0.760  0.521  0.885  1.000
  O79  O2-  0.760  0.721  0.085  1.000
  O79  O2-  0.760  0.721  0.285  1.000
  O79  O2-  0.760  0.721  0.485  1.000
  O79  O2-  0.760  0.721  0.685  1.000
  O79  O2-  0.760  0.721  0.885  1.000
  O79  O2-  0.760  0.921  0.085  1.000
  O79  O2-  0.760  0.921  0.285  1.000
  O79  O2-  0.760  0.921  0.485  1.000
  O79  O2-  0.760  0.921  0.685  1.000
  O79  O2-  0.760  0.921  0.885  1.000
  O79  O2-  0.960  0.121  0.085  1.000
  O79  O2-  0.960  0.121  0.285  1.000
  O79  O2-  0.960  0.121  0.485  1.000
  O79  O2-  0.960  0.121  0.685  1.000
  O79  O2-  0.960  0.121  0.885  1.000
  O79  O2-  0.960  0.321  0.085  1.000
  O79  O2-  0.960  0.321  0.285  1.000
  O79  O2-  0.960  0.321  0.485  1.000
  O79  O2-  0.960  0.321  0.685  1.000
  O79  O2-  0.960  0.321  0.885  1.000
  O79  O2-  0.960  0.521  0.085  1.000
  O79  O2-  0.960  0.521  0.285  1.000
  O79  O2-  0.960  0.521  0.485  1.000
  O79  O2-  0.960  0.521  0.685  1.000
  O79  O2-  0.960  0.521  0.885  1.000
  O79  O2-  0.960  0.721  0.085  1.000
  O79  O2-  0.960  0.721  0.285  1.000
  O79  O2-  0.960  0.721  0.485  1.000
  O79  O2-  0.960  0.721  0.685  1.000
  O79  O2-  0.960  0.721  0.885  1.000
  O79  O2-  0.960  0.921  0.085  1.000
  O79  O2-  0.960  0.921  0.285  1.000
  O79  O2-  0.960  0.921  0.485  1.000
  O79  O2-  0.960  0.921  0.685  1.000
  O79  O2-  0.960  0.921  0.885  1.000
  P20  P5+  0.140  0.100  0.100  1.000
  P20  P5+  0.140  0.100  0.300  1.000
  P20  P5+  0.140  0.100  0.500  1.000
  P20  P5+  0.140  0.100  0.700  1.000
  P20  P5+  0.140  0.100  0.900  1.000
  P20  P5+  0.140  0.300  0.100  1.000
  P20  P5+  0.140  0.300  0.300  1.000
  P20  P5+  0.140  0.300  0.500  1.000
  P20  P5+  0.140  0.300  0.700  1.000
  P20  P5+  0.140  0.300  0.900  1.000
  P20  P5+  0.140  0.500  0.100  1.000
  P20  P5+  0.140  0.500  0.300  1.000
  P20  P5+  0.140  0.500  0.500  1.000
  P20  P5+  0.140  0.500  0.700  1.000
  P20  P5+  0.140  0.500  0.900  1.000
  P20  P5+  0.140  0.700  0.100  1.000
  P20  P5+  0.140  0.700  0.300  1.000
  P20  P5+  0.140  0.700  0.500  1.000
  P20  P5+  0.140  0.700  0.700  1.000
  P20  P5+  0.140  0.700  0.900  1.000
  P20  P5+  0.140  0.900  0.100  1.000
  P20  P5+  0.140  0.900  0.300  1.000
  P20  P5+  0.140  0.900  0.500  1.000
  P20  P5+  0.140  0.900  0.700  1.000
  P20  P5+  0.140  0.900  0.900  1.000
  P20  P5+  0.340  0.100  0.100  1.000
  P20  P5+  0.340  0.100  0.300  1.000
  P20  P5+  0.340  0.100  0.500  1.000
  P20  P5+  0.340  0.100  0.700  1.000
  P20  P5+  0.340  0.100  0.900  1.000
  P20  P5+  0.340  0.300  0.100  1.000
  P20  P5+  0.340  0.300  0.300  1.000
  P20  P5+  0.340  0.300  0.500  1.000
  P20  P5+  0.340  0.300  0.700  1.000
  P20  P5+  0.340  0.300  0.900  1.000
  P20  P5+  0.340  0.500  0.100  1.000
  P20  P5+  0.340  0.500  0.300  1.000
  P20  P5+  0.340  0.500  0.500  1.000
  P20  P5+  0.340  0.500  0.700  1.000
  P20  P5+  0.340  0.500  0.900  1.000
  P20  P5+  0.340  0.700  0.100  1.000
  P20  P5+  0.340  0.700  0.300  1.000
  P20  P5+  0.340  0.700  0.500  1.000
  P20  P5+  0.340  0.700  0.700  1.000
  P20  P5+  0.340  0.700  0.900  1.000
  P20  P5+  0.340  0.900  0.100  1.000
  P20  P5+  0.340  0.900  0.300  1.000
  P20  P5+  0.340  0.900  0.500  1.000
  P20  P5+  0.340  0.900  0.700  1.000
  P20  P5+  0.340  0.900  0.900  1.000
  P20  P5+  0.540  0.100  0.100  1.000
  P20  P5+  0.540  0.100  0.300  1.000
  P20  P5+  0.540  0.100  0.500  1.000
  P20  P5+  0.540  0.100  0.700  1.000
  P20  P5+  0.540  0.100  0.900  1.000
  P20  P5+  0.540  0.300  0.100  1.000
  P20  P5+  0.540  0.300  0.300  1.000
  P20  P5+  0.540  0.300  0.500  1.000
  P20  P5+  0.540  0.300  0.700  1.000
  P20  P5+  0.540  0.300  0.900  1.000
  P20  P5+  0.540  0.500  0.100  1.000
  P20  P5+  0.540  0.500  0.300  1.000
  P20  P5+  0.540  0.500  0.500  1.000
  P20  P5+  0.540  0.500  0.700  1.000
  P20  P5+  0.540  0.500  0.900  1.000
  P20  P5+  0.540  0.700  0.100  1.000
  P20  P5+  0.540  0.700  0.300  1.000
  P20  P5+  0.540  0.700  0.500  1.000
  P20  P5+  0.540  0.700  0.700  1.000
  P20  P5+  0.540  0.700  0.900  1.000
  P20  P5+  0.540  0.900  0.100  1.000
  P20  P5+  0.540  0.900  0.300  1.000
  P20  P5+  0.540  0.900  0.500  1.000
  P20  P5+  0.540  0.900  0.700  1.000
  P20  P5+  0.540  0.900  0.900  1.000
  P20  P5+  0.740  0.100  0.100  1.000
  P20  P5+  0.740  0.100  0.300  1.000
  P20  P5+  0.740  0.100  0.500  1.000
  P20  P5+  0.740  0.100  0.700  1.000
  P20  P5+  0.740  0.100  0.900  1.000
  P20  P5+  0.740  0.300  0.100  1.000
  P20  P5+  0.740  0.300  0.300  1.000
  P20  P5+  0.740  0.300  0.500  1.000
  P20  P5+  0.740  0.300  0.700  1.000
  P20  P5+  0.740  0.300  0.900  1.000
  P20  P5+  0.740  0.500  0.100  1.000
  P20  P5+  0.740  0.500  0.300  1.000
  P20  P5+  0.740  0.500  0.500  1.000
  P20  P5+  0.740  0.500  0.700  1.000
  P20  P5+  0.740  0.500  0.900  1.000
  P20  P5+  0.740  0.700  0.100  1.000
  P20  P5+  0.740  0.700  0.300  1.000
  P20  P5+  0.740  0.700  0.500  1.000
  P20  P5+  0.740  0.700  0.700  1.000
  P20  P5+  0.740  0.700  0.900  1.000
  P20  P5+  0.740  0.900  0.100  1.000
  P20  P5+  0.740  0.900  0.300  1.000
  P20  P5+  0.740  0.900  0.500  1.000
  P20  P5+  0.740  0.900  0.700  1.000
  P20  P5+  0.740  0.900  0.900  1.000
  P20  P5+  0.940  0.100  0.100  1.000
  P20  P5+  0.940  0.100  0.300  1.000
  P20  P5+  0.940  0.100  0.500  1.000
  P20  P5+  0.940  0.100  0.700  1.000
  P20  P5+  0.940  0.100  0.900  1.000
  P20  P5+  0.940  0.300  0.100  1.000
  P20  P5+  0.940  0.300  0.300  1.000
  P20  P5+  0.940  0.300  0.500  1.000
  P20  P5+  0.940  0.300  0.700  1.000
  P20  P5+  0.940  0.300  0.900  1.000
  P20  P5+  0.940  0.500  0.100  1.000
  P20  P5+  0.940  0.500  0.300  1.000
  P20  P5+  0.940  0.500  0.500  1.000
  P20  P5+  0.940  0.500  0.700  1.000
  P20  P5+  0.940  0.500  0.900  1.000
  P20  P5+  0.940  0.700  0.100  1.000
  P20  P5+  0.940  0.700  0.300  1.000
  P20  P5+  0.940  0.700  0.500  1.000
  P20  P5+  0.940  0.700  0.700  1.000
  P20  P5+  0.940  0.700  0.900  1.000
  P20  P5+  0.940  0.900  0.100  1.000
  P20  P5+  0.940  0.900  0.300  1.000
  P20  P5+  0.940  0.900  0.500  1.000
  P20  P5+  0.940  0.900  0.700  1.000
  P20  P5+  0.940  0.900  0.900  1.000
  P21  P5+  0.129  0.130  0.171  1.000
  P21  P5+  0.129  0.130  0.371  1.000
  P21  P5+  0.129  0.130  0.571  1.000
  P21  P5+  0.129  0.130  0.771  1.000
  P21  P5+  0.129  0.130  0.971  1.000
  P21  P5+  0.129  0.330  0.171  1.000
  P21  P5+  0.129  0.330  0.371  1.000
  P21  P5+  0.129  0.330  0.571  1.000
  P21  P5+  0.129  0.330  0.771  1.000
  P21  P5+  0.129  0.330  0.971  1.000
  P21  P5+  0.129  0.530  0.171  1.000
  P21  P5+  0.129  0.530  0.371  1.000
  P21  P5+  0.129  0.530  0.571  1.000
  P21  P5+  0.129  0.530  0.771  1.000
  P21  P5+  0.129  0.530  0.971  1.000
  P21  P5+  0.129  0.730  0.171  1.000
  P21  P5+  0.129  0.730  0.371  1.000
  P21  P5+  0.129  0.730  0.571  1.000
  P21  P5+  0.129  0.730  0.771  1.000
  P21  P5+  0.129  0.730  0.971  1.000
  P21  P5+  0.129  0.930  0.171  1.000
  P21  P5+  0.129  0.930  0.371  1.000
  P21  P5+  0.129  0.930  0.571  1.000
  P21  P5+  0.129  0.930  0.771  1.000
  P21  P5+  0.129  0.930  0.971  1.000
  P21  P5+  0.329  0.130  0.171  1.000
  P21  P5+  0.329  0.130  0.371  1.000
  P21  P5+  0.329  0.130  0.571  1.000
  P21  P5+  0.329  0.130  0.771  1.000
  P21  P5+  0.329  0.130  0.971  1.000
  P21  P5+  0.329  0.330  0.171  1.000
  P21  P5+  0.329  0.330  0.371  1.000
  P21  P5+  0.329  0.330  0.571  1.000
  P21  P5+  0.329  0.330  0.771  1.000
  P21  P5+  0.329  0.330  0.971  1.000
  P21  P5+  0.329  0.530  0.171  1.000
  P21  P5+  0.329  0.530  0.371  1.000
  P21  P5+  0.329  0.530  0.571  1.000
  P21  P5+  0.329  0.530  0.771  1.000
  P21  P5+  0.329  0.530  0.971  1.000
  P21  P5+  0.329  0.730  0.171  1.000
  P21  P5+  0.329  0.730  0.371  1.000
  P21  P5+  0.329  0.730  0.571  1.000
  P21  P5+  0.329  0.730  0.771  1.000
  P21  P5+  0.329  0.730  0.971  1.000
  P21  P5+  0.329  0.930  0.171  1.000
  P21  P5+  0.329  0.930  0.371  1.000
  P21  P5+  0.329  0.930  0.571  1.000
  P21  P5+  0.329  0.930  0.771  1.000
  P21  P5+  0.329  0.930  0.971  1.000
  P21  P5+  0.529  0.130  0.171  1.000
  P21  P5+  0.529  0.130  0.371  1.000
  P21  P5+  0.529  0.130  0.571  1.000
  P21  P5+  0.529  0.130  0.771  1.000
  P21  P5+  0.529  0.130  0.971  1.000
  P21  P5+  0.529  0.330  0.171  1.000
  P21  P5+  0.529  0.330  0.371  1.000
  P21  P5+  0.529  0.330  0.571  1.000
  P21  P5+  0.529  0.330  0.771  1.000
  P21  P5+  0.529  0.330  0.971  1.000
  P21  P5+  0.529  0.530  0.171  1.000
  P21  P5+  0.529  0.530  0.371  1.000
  P21  P5+  0.529  0.530  0.571  1.000
  P21  P5+  0.529  0.530  0.771  1.000
  P21  P5+  0.529  0.530  0.971  1.000
  P21  P5+  0.529  0.730  0.171  1.000
  P21  P5+  0.529  0.730  0.371  1.000
  P21  P5+  0.529  0.730  0.571  1.000
  P21  P5+  0.529  0.730  0.771  1.000
  P21  P5+  0.529  0.730  0.971  1.000
  P21  P5+  0.529  0.930  0.171  1.000
  P21  P5+  0.529  0.930  0.371  1.000
  P21  P5+  0.529  0.930  0.571  1.000
  P21  P5+  0.529  0.930  0.771  1.000
  P21  P5+  0.529  0.930  0.971  1.000
  P21  P5+  0.729  0.130  0.171  1.000
  P21  P5+  0.729  0.130  0.371  1.000
  P21  P5+  0.729  0.130  0.571  1.000
  P21  P5+  0.729  0.130  0.771  1.000
  P21  P5+  0.729  0.130  0.971  1.000
  P21  P5+  0.729  0.330  0.171  1.000
  P21  P5+  0.729  0.330  0.371  1.000
  P21  P5+  0.729  0.330  0.571  1.000
  P21  P5+  0.729  0.330  0.771  1.000
  P21  P5+  0.729  0.330  0.971  1.000
  P21  P5+  0.729  0.530  0.171  1.000
  P21  P5+  0.729  0.530  0.371  1.000
  P21  P5+  0.729  0.530  0.571  1.000
  P21  P5+  0.729  0.530  0.771  1.000
  P21  P5+  0.729  0.530  0.971  1.000
  P21  P5+  0.729  0.730  0.171  1.000
  P21  P5+  0.729  0.730  0.371  1.000
  P21  P5+  0.729  0.730  0.571  1.000
  P21  P5+  0.729  0.730  0.771  1.000
  P21  P5+  0.729  0.730  0.971  1.000
  P21  P5+  0.729  0.930  0.171  1.000
  P21  P5+  0.729  0.930  0.371  1.000
  P21  P5+  0.729  0.930  0.571  1.000
  P21  P5+  0.729  0.930  0.771  1.000
  P21  P5+  0.729  0.930  0.971  1.000
  P21  P5+  0.929  0.130  0.171  1.000
  P21  P5+  0.929  0.130  0.371  1.000
  P21  P5+  0.929  0.130  0.571  1.000
  P21  P5+  0.929  0.130  0.771  1.000
  P21  P5+  0.929  0.130  0.971  1.000
  P21  P5+  0.929  0.330  0.171  1.000
  P21  P5+  0.929  0.330  0.371  1.000
  P21  P5+  0.929  0.330  0.571  1.000
  P21  P5+  0.929  0.330  0.771  1.000
  P21  P5+  0.929  0.330  0.971  1.000
  P21  P5+  0.929  0.530  0.171  1.000
  P21  P5+  0.929  0.530  0.371  1.000
  P21  P5+  0.929  0.530  0.571  1.000
  P21  P5+  0.929  0.530  0.771  1.000
  P21  P5+  0.929  0.530  0.971  1.000
  P21  P5+  0.929  0.730  0.171  1.000
  P21  P5+  0.929  0.730  0.371  1.000
  P21  P5+  0.929  0.730  0.571  1.000
  P21  P5+  0.929  0.730  0.771  1.000
  P21  P5+  0.929  0.730  0.971  1.000
  P21  P5+  0.929  0.930  0.171  1.000
  P21  P5+  0.929  0.930  0.371  1.000
  P21  P5+  0.929  0.930  0.571  1.000
  P21  P5+  0.929  0.930  0.771  1.000
  P21  P5+  0.929  0.930  0.971  1.000
  P22  P5+  0.129  0.070  0.029  1.000
  P22  P5+  0.129  0.070  0.229  1.000
  P22  P5+  0.129  0.070  0.429  1.000
  P22  P5+  0.129  0.070  0.629  1.000
  P22  P5+  0.129  0.070  0.829  1.000
  P22  P5+  0.129  0.270  0.029  1.000
  P22  P5+  0.129  0.270  0.229  1.000
  P22  P5+  0.129  0.270  0.429  1.000
  P22  P5+  0.129  0.270  0.629  1.000
  P22  P5+  0.129  0.270  0.829  1.000
  P22  P5+  0.129  0.470  0.029  1.000
  P22  P5+  0.129  0.470  0.229  1.000
  P22  P5+  0.129  0.470  0.429  1.000
  P22  P5+  0.129  0.470  0.629  1.000
  P22  P5+  0.129  0.470  0.829  1.000
  P22  P5+  0.129  0.670  0.029  1.000
  P22  P5+  0.129  0.670  0.229  1.000
  P22  P5+  0.129  0.670  0.429  1.000
  P22  P5+  0.129  0.670  0.629  1.000
  P22  P5+  0.129  0.670  0.829  1.000
  P22  P5+  0.129  0.870  0.029  1.000
  P22  P5+  0.129  0.870  0.229  1.000
  P22  P5+  0.129  0.870  0.429  1.000
  P22  P5+  0.129  0.870  0.629  1.000
  P22  P5+  0.129  0.870  0.829  1.000
  P22  P5+  0.329  0.070  0.029  1.000
  P22  P5+  0.329  0.070  0.229  1.000
  P22  P5+  0.329  0.070  0.429  1.000
  P22  P5+  0.329  0.070  0.629  1.000
  P22  P5+  0.329  0.070  0.829  1.000
  P22  P5+  0.329  0.270  0.029  1.000
  P22  P5+  0.329  0.270  0.229  1.000
  P22  P5+  0.329  0.270  0.429  1.000
  P22  P5+  0.329  0.270  0.629  1.000
  P22  P5+  0.329  0.270  0.829  1.000
  P22  P5+  0.329  0.470  0.029  1.000
  P22  P5+  0.329  0.470  0.229  1.000
  P22  P5+  0.329  0.470  0.429  1.000
  P22  P5+  0.329  0.470  0.629  1.000
  P22  P5+  0.329  0.470  0.829  1.000
  P22  P5+  0.329  0.670  0.029  1.000
  P22  P5+  0.329  0.670  0.229  1.000
  P22  P5+  0.329  0.670  0.429  1.000
  P22  P5+  0.329  0.670  0.629  1.000
  P22  P5+  0.329  0.670  0.829  1.000
  P22  P5+  0.329  0.870  0.029  1.000
  P22  P5+  0.329  0.870  0.229  1.000
  P22  P5+  0.329  0.870  0.429  1.000
  P22  P5+  0.329  0.870  0.629  1.000
  P22  P5+  0.329  0.870  0.829  1.000
  P22  P5+  0.529  0.070  0.029  1.000
  P22  P5+  0.529  0.070  0.229  1.000
  P22  P5+  0.529  0.070  0.429  1.000
  P22  P5+  0.529  0.070  0.629  1.000
  P22  P5+  0.529  0.070  0.829  1.000
  P22  P5+  0.529  0.270  0.029  1.000
  P22  P5+  0.529  0.270  0.229  1.000
  P22  P5+  0.529  0.270  0.429  1.000
  P22  P5+  0.529  0.270  0.629  1.000
  P22  P5+  0.529  0.270  0.829  1.000
  P22  P5+  0.529  0.470  0.029  1.000
  P22  P5+  0.529  0.470  0.229  1.000
  P22  P5+  0.529  0.470  0.429  1.000
  P22  P5+  0.529  0.470  0.629  1.000
  P22  P5+  0.529  0.470  0.829  1.000
  P22  P5+  0.529  0.670  0.029  1.000
  P22  P5+  0.529  0.670  0.229  1.000
  P22  P5+  0.529  0.670  0.429  1.000
  P22  P5+  0.529  0.670  0.629  1.000
  P22  P5+  0.529  0.670  0.829  1.000
  P22  P5+  0.529  0.870  0.029  1.000
  P22  P5+  0.529  0.870  0.229  1.000
  P22  P5+  0.529  0.870  0.429  1.000
  P22  P5+  0.529  0.870  0.629  1.000
  P22  P5+  0.529  0.870  0.829  1.000
  P22  P5+  0.729  0.070  0.029  1.000
  P22  P5+  0.729  0.070  0.229  1.000
  P22  P5+  0.729  0.070  0.429  1.000
  P22  P5+  0.729  0.070  0.629  1.000
  P22  P5+  0.729  0.070  0.829  1.000
  P22  P5+  0.729  0.270  0.029  1.000
  P22  P5+  0.729  0.270  0.229  1.000
  P22  P5+  0.729  0.270  0.429  1.000
  P22  P5+  0.729  0.270  0.629  1.000
  P22  P5+  0.729  0.270  0.829  1.000
  P22  P5+  0.729  0.470  0.029  1.000
  P22  P5+  0.729  0.470  0.229  1.000
  P22  P5+  0.729  0.470  0.429  1.000
  P22  P5+  0.729  0.470  0.629  1.000
  P22  P5+  0.729  0.470  0.829  1.000
  P22  P5+  0.729  0.670  0.029  1.000
  P22  P5+  0.729  0.670  0.229  1.000
  P22  P5+  0.729  0.670  0.429  1.000
  P22  P5+  0.729  0.670  0.629  1.000
  P22  P5+  0.729  0.670  0.829  1.000
  P22  P5+  0.729  0.870  0.029  1.000
  P22  P5+  0.729  0.870  0.229  1.000
  P22  P5+  0.729  0.870  0.429  1.000
  P22  P5+  0.729  0.870  0.629  1.000
  P22  P5+  0.729  0.870  0.829  1.000
  P22  P5+  0.929  0.070  0.029  1.000
  P22  P5+  0.929  0.070  0.229  1.000
  P22  P5+  0.929  0.070  0.429  1.000
  P22  P5+  0.929  0.070  0.629  1.000
  P22  P5+  0.929  0.070  0.829  1.000
  P22  P5+  0.929  0.270  0.029  1.000
  P22  P5+  0.929  0.270  0.229  1.000
  P22  P5+  0.929  0.270  0.429  1.000
  P22  P5+  0.929  0.270  0.629  1.000
  P22  P5+  0.929  0.270  0.829  1.000
  P22  P5+  0.929  0.470  0.029  1.000
  P22  P5+  0.929  0.470  0.229  1.000
  P22  P5+  0.929  0.470  0.429  1.000
  P22  P5+  0.929  0.470  0.629  1.000
  P22  P5+  0.929  0.470  0.829  1.000
  P22  P5+  0.929  0.670  0.029  1.000
  P22  P5+  0.929  0.670  0.229  1.000
  P22  P5+  0.929  0.670  0.429  1.000
  P22  P5+  0.929  0.670  0.629  1.000
  P22  P5+  0.929  0.670  0.829  1.000
  P22  P5+  0.929  0.870  0.029  1.000
  P22  P5+  0.929  0.870  0.229  1.000
  P22  P5+  0.929  0.870  0.429  1.000
  P22  P5+  0.929  0.870  0.629  1.000
  P22  P5+  0.929  0.870  0.829  1.000
  P23  P5+  0.071  0.030  0.129  1.000
  P23  P5+  0.071  0.030  0.329  1.000
  P23  P5+  0.071  0.030  0.529  1.000
  P23  P5+  0.071  0.030  0.729  1.000
  P23  P5+  0.071  0.030  0.929  1.000
  P23  P5+  0.071  0.230  0.129  1.000
  P23  P5+  0.071  0.230  0.329  1.000
  P23  P5+  0.071  0.230  0.529  1.000
  P23  P5+  0.071  0.230  0.729  1.000
  P23  P5+  0.071  0.230  0.929  1.000
  P23  P5+  0.071  0.430  0.129  1.000
  P23  P5+  0.071  0.430  0.329  1.000
  P23  P5+  0.071  0.430  0.529  1.000
  P23  P5+  0.071  0.430  0.729  1.000
  P23  P5+  0.071  0.430  0.929  1.000
  P23  P5+  0.071  0.630  0.129  1.000
  P23  P5+  0.071  0.630  0.329  1.000
  P23  P5+  0.071  0.630  0.529  1.000
  P23  P5+  0.071  0.630  0.729  1.000
  P23  P5+  0.071  0.630  0.929  1.000
  P23  P5+  0.071  0.830  0.129  1.000
  P23  P5+  0.071  0.830  0.329  1.000
  P23  P5+  0.071  0.830  0.529  1.000
  P23  P5+  0.071  0.830  0.729  1.000
  P23  P5+  0.071  0.830  0.929  1.000
  P23  P5+  0.271  0.030  0.129  1.000
  P23  P5+  0.271  0.030  0.329  1.000
  P23  P5+  0.271  0.030  0.529  1.000
  P23  P5+  0.271  0.030  0.729  1.000
  P23  P5+  0.271  0.030  0.929  1.000
  P23  P5+  0.271  0.230  0.129  1.000
  P23  P5+  0.271  0.230  0.329  1.000
  P23  P5+  0.271  0.230  0.529  1.000
  P23  P5+  0.271  0.230  0.729  1.000
  P23  P5+  0.271  0.230  0.929  1.000
  P23  P5+  0.271  0.430  0.129  1.000
  P23  P5+  0.271  0.430  0.329  1.000
  P23  P5+  0.271  0.430  0.529  1.000
  P23  P5+  0.271  0.430  0.729  1.000
  P23  P5+  0.271  0.430  0.929  1.000
  P23  P5+  0.271  0.630  0.129  1.000
  P23  P5+  0.271  0.630  0.329  1.000
  P23  P5+  0.271  0.630  0.529  1.000
  P23  P5+  0.271  0.630  0.729  1.000
  P23  P5+  0.271  0.630  0.929  1.000
  P23  P5+  0.271  0.830  0.129  1.000
  P23  P5+  0.271  0.830  0.329  1.000
  P23  P5+  0.271  0.830  0.529  1.000
  P23  P5+  0.271  0.830  0.729  1.000
  P23  P5+  0.271  0.830  0.929  1.000
  P23  P5+  0.471  0.030  0.129  1.000
  P23  P5+  0.471  0.030  0.329  1.000
  P23  P5+  0.471  0.030  0.529  1.000
  P23  P5+  0.471  0.030  0.729  1.000
  P23  P5+  0.471  0.030  0.929  1.000
  P23  P5+  0.471  0.230  0.129  1.000
  P23  P5+  0.471  0.230  0.329  1.000
  P23  P5+  0.471  0.230  0.529  1.000
  P23  P5+  0.471  0.230  0.729  1.000
  P23  P5+  0.471  0.230  0.929  1.000
  P23  P5+  0.471  0.430  0.129  1.000
  P23  P5+  0.471  0.430  0.329  1.000
  P23  P5+  0.471  0.430  0.529  1.000
  P23  P5+  0.471  0.430  0.729  1.000
  P23  P5+  0.471  0.430  0.929  1.000
  P23  P5+  0.471  0.630  0.129  1.000
  P23  P5+  0.471  0.630  0.329  1.000
  P23  P5+  0.471  0.630  0.529  1.000
  P23  P5+  0.471  0.630  0.729  1.000
  P23  P5+  0.471  0.630  0.929  1.000
  P23  P5+  0.471  0.830  0.129  1.000
  P23  P5+  0.471  0.830  0.329  1.000
  P23  P5+  0.471  0.830  0.529  1.000
  P23  P5+  0.471  0.830  0.729  1.000
  P23  P5+  0.471  0.830  0.929  1.000
  P23  P5+  0.671  0.030  0.129  1.000
  P23  P5+  0.671  0.030  0.329  1.000
  P23  P5+  0.671  0.030  0.529  1.000
  P23  P5+  0.671  0.030  0.729  1.000
  P23  P5+  0.671  0.030  0.929  1.000
  P23  P5+  0.671  0.230  0.129  1.000
  P23  P5+  0.671  0.230  0.329  1.000
  P23  P5+  0.671  0.230  0.529  1.000
  P23  P5+  0.671  0.230  0.729  1.000
  P23  P5+  0.671  0.230  0.929  1.000
  P23  P5+  0.671  0.430  0.129  1.000
  P23  P5+  0.671  0.430  0.329  1.000
  P23  P5+  0.671  0.430  0.529  1.000
  P23  P5+  0.671  0.430  0.729  1.000
  P23  P5+  0.671  0.430  0.929  1.000
  P23  P5+  0.671  0.630  0.129  1.000
  P23  P5+  0.671  0.630  0.329  1.000
  P23  P5+  0.671  0.630  0.529  1.000
  P23  P5+  0.671  0.630  0.729  1.000
  P23  P5+  0.671  0.630  0.929  1.000
  P23  P5+  0.671  0.830  0.129  1.000
  P23  P5+  0.671  0.830  0.329  1.000
  P23  P5+  0.671  0.830  0.529  1.000
  P23  P5+  0.671  0.830  0.729  1.000
  P23  P5+  0.671  0.830  0.929  1.000
  P23  P5+  0.871  0.030  0.129  1.000
  P23  P5+  0.871  0.030  0.329  1.000
  P23  P5+  0.871  0.030  0.529  1.000
  P23  P5+  0.871  0.030  0.729  1.000
  P23  P5+  0.871  0.030  0.929  1.000
  P23  P5+  0.871  0.230  0.129  1.000
  P23  P5+  0.871  0.230  0.329  1.000
  P23  P5+  0.871  0.230  0.529  1.000
  P23  P5+  0.871  0.230  0.729  1.000
  P23  P5+  0.871  0.230  0.929  1.000
  P23  P5+  0.871  0.430  0.129  1.000
  P23  P5+  0.871  0.430  0.329  1.000
  P23  P5+  0.871  0.430  0.529  1.000
  P23  P5+  0.871  0.430  0.729  1.000
  P23  P5+  0.871  0.430  0.929  1.000
  P23  P5+  0.871  0.630  0.129  1.000
  P23  P5+  0.871  0.630  0.329  1.000
  P23  P5+  0.871  0.630  0.529  1.000
  P23  P5+  0.871  0.630  0.729  1.000
  P23  P5+  0.871  0.630  0.929  1.000
  P23  P5+  0.871  0.830  0.129  1.000
  P23  P5+  0.871  0.830  0.329  1.000
  P23  P5+  0.871  0.830  0.529  1.000
  P23  P5+  0.871  0.830  0.729  1.000
  P23  P5+  0.871  0.830  0.929  1.000
  P24  P5+  0.071  0.170  0.071  1.000
  P24  P5+  0.071  0.170  0.271  1.000
  P24  P5+  0.071  0.170  0.471  1.000
  P24  P5+  0.071  0.170  0.671  1.000
  P24  P5+  0.071  0.170  0.871  1.000
  P24  P5+  0.071  0.370  0.071  1.000
  P24  P5+  0.071  0.370  0.271  1.000
  P24  P5+  0.071  0.370  0.471  1.000
  P24  P5+  0.071  0.370  0.671  1.000
  P24  P5+  0.071  0.370  0.871  1.000
  P24  P5+  0.071  0.570  0.071  1.000
  P24  P5+  0.071  0.570  0.271  1.000
  P24  P5+  0.071  0.570  0.471  1.000
  P24  P5+  0.071  0.570  0.671  1.000
  P24  P5+  0.071  0.570  0.871  1.000
  P24  P5+  0.071  0.770  0.071  1.000
  P24  P5+  0.071  0.770  0.271  1.000
  P24  P5+  0.071  0.770  0.471  1.000
  P24  P5+  0.071  0.770  0.671  1.000
  P24  P5+  0.071  0.770  0.871  1.000
  P24  P5+  0.071  0.970  0.071  1.000
  P24  P5+  0.071  0.970  0.271  1.000
  P24  P5+  0.071  0.970  0.471  1.000
  P24  P5+  0.071  0.970  0.671  1.000
  P24  P5+  0.071  0.970  0.871  1.000
  P24  P5+  0.271  0.170  0.071  1.000
  P24  P5+  0.271  0.170  0.271  1.000
  P24  P5+  0.271  0.170  0.471  1.000
  P24  P5+  0.271  0.170  0.671  1.000
  P24  P5+  0.271  0.170  0.871  1.000
  P24  P5+  0.271  0.370  0.071  1.000
  P24  P5+  0.271  0.370  0.271  1.000
  P24  P5+  0.271  0.370  0.471  1.000
  P24  P5+  0.271  0.370  0.671  1.000
  P24  P5+  0.271  0.370  0.871  1.000
  P24  P5+  0.271  0.570  0.071  1.000
  P24  P5+  0.271  0.570  0.271  1.000
  P24  P5+  0.271  0.570  0.471  1.000
  P24  P5+  0.271  0.570  0.671  1.000
  P24  P5+  0.271  0.570  0.871  1.000
  P24  P5+  0.271  0.770  0.071  1.000
  P24  P5+  0.271  0.770  0.271  1.000
  P24  P5+  0.271  0.770  0.471  1.000
  P24  P5+  0.271  0.770  0.671  1.000
  P24  P5+  0.271  0.770  0.871  1.000
  P24  P5+  0.271  0.970  0.071  1.000
  P24  P5+  0.271  0.970  0.271  1.000
  P24  P5+  0.271  0.970  0.471  1.000
  P24  P5+  0.271  0.970  0.671  1.000
  P24  P5+  0.271  0.970  0.871  1.000
  P24  P5+  0.471  0.170  0.071  1.000
  P24  P5+  0.471  0.170  0.271  1.000
  P24  P5+  0.471  0.170  0.471  1.000
  P24  P5+  0.471  0.170  0.671  1.000
  P24  P5+  0.471  0.170  0.871  1.000
  P24  P5+  0.471  0.370  0.071  1.000
  P24  P5+  0.471  0.370  0.271  1.000
  P24  P5+  0.471  0.370  0.471  1.000
  P24  P5+  0.471  0.370  0.671  1.000
  P24  P5+  0.471  0.370  0.871  1.000
  P24  P5+  0.471  0.570  0.071  1.000
  P24  P5+  0.471  0.570  0.271  1.000
  P24  P5+  0.471  0.570  0.471  1.000
  P24  P5+  0.471  0.570  0.671  1.000
  P24  P5+  0.471  0.570  0.871  1.000
  P24  P5+  0.471  0.770  0.071  1.000
  P24  P5+  0.471  0.770  0.271  1.000
  P24  P5+  0.471  0.770  0.471  1.000
  P24  P5+  0.471  0.770  0.671  1.000
  P24  P5+  0.471  0.770  0.871  1.000
  P24  P5+  0.471  0.970  0.071  1.000
  P24  P5+  0.471  0.970  0.271  1.000
  P24  P5+  0.471  0.970  0.471  1.000
  P24  P5+  0.471  0.970  0.671  1.000
  P24  P5+  0.471  0.970  0.871  1.000
  P24  P5+  0.671  0.170  0.071  1.000
  P24  P5+  0.671  0.170  0.271  1.000
  P24  P5+  0.671  0.170  0.471  1.000
  P24  P5+  0.671  0.170  0.671  1.000
  P24  P5+  0.671  0.170  0.871  1.000
  P24  P5+  0.671  0.370  0.071  1.000
  P24  P5+  0.671  0.370  0.271  1.000
  P24  P5+  0.671  0.370  0.471  1.000
  P24  P5+  0.671  0.370  0.671  1.000
  P24  P5+  0.671  0.370  0.871  1.000
  P24  P5+  0.671  0.570  0.071  1.000
  P24  P5+  0.671  0.570  0.271  1.000
  P24  P5+  0.671  0.570  0.471  1.000
  P24  P5+  0.671  0.570  0.671  1.000
  P24  P5+  0.671  0.570  0.871  1.000
  P24  P5+  0.671  0.770  0.071  1.000
  P24  P5+  0.671  0.770  0.271  1.000
  P24  P5+  0.671  0.770  0.471  1.000
  P24  P5+  0.671  0.770  0.671  1.000
  P24  P5+  0.671  0.770  0.871  1.000
  P24  P5+  0.671  0.970  0.071  1.000
  P24  P5+  0.671  0.970  0.271  1.000
  P24  P5+  0.671  0.970  0.471  1.000
  P24  P5+  0.671  0.970  0.671  1.000
  P24  P5+  0.671  0.970  0.871  1.000
  P24  P5+  0.871  0.170  0.071  1.000
  P24  P5+  0.871  0.170  0.271  1.000
  P24  P5+  0.871  0.170  0.471  1.000
  P24  P5+  0.871  0.170  0.671  1.000
  P24  P5+  0.871  0.170  0.871  1.000
  P24  P5+  0.871  0.370  0.071  1.000
  P24  P5+  0.871  0.370  0.271  1.000
  P24  P5+  0.871  0.370  0.471  1.000
  P24  P5+  0.871  0.370  0.671  1.000
  P24  P5+  0.871  0.370  0.871  1.000
  P24  P5+  0.871  0.570  0.071  1.000
  P24  P5+  0.871  0.570  0.271  1.000
  P24  P5+  0.871  0.570  0.471  1.000
  P24  P5+  0.871  0.570  0.671  1.000
  P24  P5+  0.871  0.570  0.871  1.000
  P24  P5+  0.871  0.770  0.071  1.000
  P24  P5+  0.871  0.770  0.271  1.000
  P24  P5+  0.871  0.770  0.471  1.000
  P24  P5+  0.871  0.770  0.671  1.000
  P24  P5+  0.871  0.770  0.871  1.000
  P24  P5+  0.871  0.970  0.071  1.000
  P24  P5+  0.871  0.970  0.271  1.000
  P24  P5+  0.871  0.970  0.471  1.000
  P24  P5+  0.871  0.970  0.671  1.000
  P24  P5+  0.871  0.970  0.871  1.000
  P25  P5+  0.060  0.000  0.000  1.000
  P25  P5+  0.060  0.000  0.200  1.000
  P25  P5+  0.060  0.000  0.400  1.000
  P25  P5+  0.060  -0.000  0.600  1.000
  P25  P5+  0.060  0.000  0.800  1.000
  P25  P5+  0.060  0.200  0.000  1.000
  P25  P5+  0.060  0.200  0.200  1.000
  P25  P5+  0.060  0.200  0.400  1.000
  P25  P5+  0.060  0.200  0.600  1.000
  P25  P5+  0.060  0.200  0.800  1.000
  P25  P5+  0.060  0.400  0.000  1.000
  P25  P5+  0.060  0.400  0.200  1.000
  P25  P5+  0.060  0.400  0.400  1.000
  P25  P5+  0.060  0.400  0.600  1.000
  P25  P5+  0.060  0.400  0.800  1.000
  P25  P5+  0.060  0.600  0.000  1.000
  P25  P5+  0.060  0.600  0.200  1.000
  P25  P5+  0.060  0.600  0.400  1.000
  P25  P5+  0.060  0.600  0.600  1.000
  P25  P5+  0.060  0.600  0.800  1.000
  P25  P5+  0.060  0.800  0.000  1.000
  P25  P5+  0.060  0.800  0.200  1.000
  P25  P5+  0.060  0.800  0.400  1.000
  P25  P5+  0.060  0.800  0.600  1.000
  P25  P5+  0.060  0.800  0.800  1.000
  P25  P5+  0.260  0.000  0.000  1.000
  P25  P5+  0.260  0.000  0.200  1.000
  P25  P5+  0.260  0.000  0.400  1.000
  P25  P5+  0.260  -0.000  0.600  1.000
  P25  P5+  0.260  0.000  0.800  1.000
  P25  P5+  0.260  0.200  0.000  1.000
  P25  P5+  0.260  0.200  0.200  1.000
  P25  P5+  0.260  0.200  0.400  1.000
  P25  P5+  0.260  0.200  0.600  1.000
  P25  P5+  0.260  0.200  0.800  1.000
  P25  P5+  0.260  0.400  0.000  1.000
  P25  P5+  0.260  0.400  0.200  1.000
  P25  P5+  0.260  0.400  0.400  1.000
  P25  P5+  0.260  0.400  0.600  1.000
  P25  P5+  0.260  0.400  0.800  1.000
  P25  P5+  0.260  0.600  0.000  1.000
  P25  P5+  0.260  0.600  0.200  1.000
  P25  P5+  0.260  0.600  0.400  1.000
  P25  P5+  0.260  0.600  0.600  1.000
  P25  P5+  0.260  0.600  0.800  1.000
  P25  P5+  0.260  0.800  0.000  1.000
  P25  P5+  0.260  0.800  0.200  1.000
  P25  P5+  0.260  0.800  0.400  1.000
  P25  P5+  0.260  0.800  0.600  1.000
  P25  P5+  0.260  0.800  0.800  1.000
  P25  P5+  0.460  0.000  0.000  1.000
  P25  P5+  0.460  0.000  0.200  1.000
  P25  P5+  0.460  0.000  0.400  1.000
  P25  P5+  0.460  -0.000  0.600  1.000
  P25  P5+  0.460  0.000  0.800  1.000
  P25  P5+  0.460  0.200  0.000  1.000
  P25  P5+  0.460  0.200  0.200  1.000
  P25  P5+  0.460  0.200  0.400  1.000
  P25  P5+  0.460  0.200  0.600  1.000
  P25  P5+  0.460  0.200  0.800  1.000
  P25  P5+  0.460  0.400  0.000  1.000
  P25  P5+  0.460  0.400  0.200  1.000
  P25  P5+  0.460  0.400  0.400  1.000
  P25  P5+  0.460  0.400  0.600  1.000
  P25  P5+  0.460  0.400  0.800  1.000
  P25  P5+  0.460  0.600  0.000  1.000
  P25  P5+  0.460  0.600  0.200  1.000
  P25  P5+  0.460  0.600  0.400  1.000
  P25  P5+  0.460  0.600  0.600  1.000
  P25  P5+  0.460  0.600  0.800  1.000
  P25  P5+  0.460  0.800  0.000  1.000
  P25  P5+  0.460  0.800  0.200  1.000
  P25  P5+  0.460  0.800  0.400  1.000
  P25  P5+  0.460  0.800  0.600  1.000
  P25  P5+  0.460  0.800  0.800  1.000
  P25  P5+  0.660  0.000  0.000  1.000
  P25  P5+  0.660  0.000  0.200  1.000
  P25  P5+  0.660  0.000  0.400  1.000
  P25  P5+  0.660  -0.000  0.600  1.000
  P25  P5+  0.660  0.000  0.800  1.000
  P25  P5+  0.660  0.200  0.000  1.000
  P25  P5+  0.660  0.200  0.200  1.000
  P25  P5+  0.660  0.200  0.400  1.000
  P25  P5+  0.660  0.200  0.600  1.000
  P25  P5+  0.660  0.200  0.800  1.000
  P25  P5+  0.660  0.400  0.000  1.000
  P25  P5+  0.660  0.400  0.200  1.000
  P25  P5+  0.660  0.400  0.400  1.000
  P25  P5+  0.660  0.400  0.600  1.000
  P25  P5+  0.660  0.400  0.800  1.000
  P25  P5+  0.660  0.600  0.000  1.000
  P25  P5+  0.660  0.600  0.200  1.000
  P25  P5+  0.660  0.600  0.400  1.000
  P25  P5+  0.660  0.600  0.600  1.000
  P25  P5+  0.660  0.600  0.800  1.000
  P25  P5+  0.660  0.800  0.000  1.000
  P25  P5+  0.660  0.800  0.200  1.000
  P25  P5+  0.660  0.800  0.400  1.000
  P25  P5+  0.660  0.800  0.600  1.000
  P25  P5+  0.660  0.800  0.800  1.000
  P25  P5+  0.860  0.000  0.000  1.000
  P25  P5+  0.860  0.000  0.200  1.000
  P25  P5+  0.860  0.000  0.400  1.000
  P25  P5+  0.860  -0.000  0.600  1.000
  P25  P5+  0.860  0.000  0.800  1.000
  P25  P5+  0.860  0.200  0.000  1.000
  P25  P5+  0.860  0.200  0.200  1.000
  P25  P5+  0.860  0.200  0.400  1.000
  P25  P5+  0.860  0.200  0.600  1.000
  P25  P5+  0.860  0.200  0.800  1.000
  P25  P5+  0.860  0.400  0.000  1.000
  P25  P5+  0.860  0.400  0.200  1.000
  P25  P5+  0.860  0.400  0.400  1.000
  P25  P5+  0.860  0.400  0.600  1.000
  P25  P5+  0.860  0.400  0.800  1.000
  P25  P5+  0.860  0.600  0.000  1.000
  P25  P5+  0.860  0.600  0.200  1.000
  P25  P5+  0.860  0.600  0.400  1.000
  P25  P5+  0.860  0.600  0.600  1.000
  P25  P5+  0.860  0.600  0.800  1.000
  P25  P5+  0.860  0.800  0.000  1.000
  P25  P5+  0.860  0.800  0.200  1.000
  P25  P5+  0.860  0.800  0.400  1.000
  P25  P5+  0.860  0.800  0.600  1.000
  P25  P5+  0.860  0.800  0.800  1.000
  P26  P5+  0.041  0.100  0.000  1.000
  P26  P5+  0.041  0.100  0.200  1.000
  P26  P5+  0.041  0.100  0.400  1.000
  P26  P5+  0.041  0.100  0.600  1.000
  P26  P5+  0.041  0.100  0.800  1.000
  P26  P5+  0.041  0.300  0.000  1.000
  P26  P5+  0.041  0.300  0.200  1.000
  P26  P5+  0.041  0.300  0.400  1.000
  P26  P5+  0.041  0.300  0.600  1.000
  P26  P5+  0.041  0.300  0.800  1.000
  P26  P5+  0.041  0.500  0.000  1.000
  P26  P5+  0.041  0.500  0.200  1.000
  P26  P5+  0.041  0.500  0.400  1.000
  P26  P5+  0.041  0.500  0.600  1.000
  P26  P5+  0.041  0.500  0.800  1.000
  P26  P5+  0.041  0.700  0.000  1.000
  P26  P5+  0.041  0.700  0.200  1.000
  P26  P5+  0.041  0.700  0.400  1.000
  P26  P5+  0.041  0.700  0.600  1.000
  P26  P5+  0.041  0.700  0.800  1.000
  P26  P5+  0.041  0.900  0.000  1.000
  P26  P5+  0.041  0.900  0.200  1.000
  P26  P5+  0.041  0.900  0.400  1.000
  P26  P5+  0.041  0.900  0.600  1.000
  P26  P5+  0.041  0.900  0.800  1.000
  P26  P5+  0.241  0.100  0.000  1.000
  P26  P5+  0.241  0.100  0.200  1.000
  P26  P5+  0.241  0.100  0.400  1.000
  P26  P5+  0.241  0.100  0.600  1.000
  P26  P5+  0.241  0.100  0.800  1.000
  P26  P5+  0.241  0.300  0.000  1.000
  P26  P5+  0.241  0.300  0.200  1.000
  P26  P5+  0.241  0.300  0.400  1.000
  P26  P5+  0.241  0.300  0.600  1.000
  P26  P5+  0.241  0.300  0.800  1.000
  P26  P5+  0.241  0.500  0.000  1.000
  P26  P5+  0.241  0.500  0.200  1.000
  P26  P5+  0.241  0.500  0.400  1.000
  P26  P5+  0.241  0.500  0.600  1.000
  P26  P5+  0.241  0.500  0.800  1.000
  P26  P5+  0.241  0.700  0.000  1.000
  P26  P5+  0.241  0.700  0.200  1.000
  P26  P5+  0.241  0.700  0.400  1.000
  P26  P5+  0.241  0.700  0.600  1.000
  P26  P5+  0.241  0.700  0.800  1.000
  P26  P5+  0.241  0.900  0.000  1.000
  P26  P5+  0.241  0.900  0.200  1.000
  P26  P5+  0.241  0.900  0.400  1.000
  P26  P5+  0.241  0.900  0.600  1.000
  P26  P5+  0.241  0.900  0.800  1.000
  P26  P5+  0.441  0.100  0.000  1.000
  P26  P5+  0.441  0.100  0.200  1.000
  P26  P5+  0.441  0.100  0.400  1.000
  P26  P5+  0.441  0.100  0.600  1.000
  P26  P5+  0.441  0.100  0.800  1.000
  P26  P5+  0.441  0.300  0.000  1.000
  P26  P5+  0.441  0.300  0.200  1.000
  P26  P5+  0.441  0.300  0.400  1.000
  P26  P5+  0.441  0.300  0.600  1.000
  P26  P5+  0.441  0.300  0.800  1.000
  P26  P5+  0.441  0.500  0.000  1.000
  P26  P5+  0.441  0.500  0.200  1.000
  P26  P5+  0.441  0.500  0.400  1.000
  P26  P5+  0.441  0.500  0.600  1.000
  P26  P5+  0.441  0.500  0.800  1.000
  P26  P5+  0.441  0.700  0.000  1.000
  P26  P5+  0.441  0.700  0.200  1.000
  P26  P5+  0.441  0.700  0.400  1.000
  P26  P5+  0.441  0.700  0.600  1.000
  P26  P5+  0.441  0.700  0.800  1.000
  P26  P5+  0.441  0.900  0.000  1.000
  P26  P5+  0.441  0.900  0.200  1.000
  P26  P5+  0.441  0.900  0.400  1.000
  P26  P5+  0.441  0.900  0.600  1.000
  P26  P5+  0.441  0.900  0.800  1.000
  P26  P5+  0.641  0.100  0.000  1.000
  P26  P5+  0.641  0.100  0.200  1.000
  P26  P5+  0.641  0.100  0.400  1.000
  P26  P5+  0.641  0.100  0.600  1.000
  P26  P5+  0.641  0.100  0.800  1.000
  P26  P5+  0.641  0.300  0.000  1.000
  P26  P5+  0.641  0.300  0.200  1.000
  P26  P5+  0.641  0.300  0.400  1.000
  P26  P5+  0.641  0.300  0.600  1.000
  P26  P5+  0.641  0.300  0.800  1.000
  P26  P5+  0.641  0.500  0.000  1.000
  P26  P5+  0.641  0.500  0.200  1.000
  P26  P5+  0.641  0.500  0.400  1.000
  P26  P5+  0.641  0.500  0.600  1.000
  P26  P5+  0.641  0.500  0.800  1.000
  P26  P5+  0.641  0.700  0.000  1.000
  P26  P5+  0.641  0.700  0.200  1.000
  P26  P5+  0.641  0.700  0.400  1.000
  P26  P5+  0.641  0.700  0.600  1.000
  P26  P5+  0.641  0.700  0.800  1.000
  P26  P5+  0.641  0.900  0.000  1.000
  P26  P5+  0.641  0.900  0.200  1.000
  P26  P5+  0.641  0.900  0.400  1.000
  P26  P5+  0.641  0.900  0.600  1.000
  P26  P5+  0.641  0.900  0.800  1.000
  P26  P5+  0.841  0.100  0.000  1.000
  P26  P5+  0.841  0.100  0.200  1.000
  P26  P5+  0.841  0.100  0.400  1.000
  P26  P5+  0.841  0.100  0.600  1.000
  P26  P5+  0.841  0.100  0.800  1.000
  P26  P5+  0.841  0.300  0.000  1.000
  P26  P5+  0.841  0.300  0.200  1.000
  P26  P5+  0.841  0.300  0.400  1.000
  P26  P5+  0.841  0.300  0.600  1.000
  P26  P5+  0.841  0.300  0.800  1.000
  P26  P5+  0.841  0.500  0.000  1.000
  P26  P5+  0.841  0.500  0.200  1.000
  P26  P5+  0.841  0.500  0.400  1.000
  P26  P5+  0.841  0.500  0.600  1.000
  P26  P5+  0.841  0.500  0.800  1.000
  P26  P5+  0.841  0.700  0.000  1.000
  P26  P5+  0.841  0.700  0.200  1.000
  P26  P5+  0.841  0.700  0.400  1.000
  P26  P5+  0.841  0.700  0.600  1.000
  P26  P5+  0.841  0.700  0.800  1.000
  P26  P5+  0.841  0.900  0.000  1.000
  P26  P5+  0.841  0.900  0.200  1.000
  P26  P5+  0.841  0.900  0.400  1.000
  P26  P5+  0.841  0.900  0.600  1.000
  P26  P5+  0.841  0.900  0.800  1.000
  P27  P5+  0.029  0.129  0.130  1.000
  P27  P5+  0.029  0.129  0.330  1.000
  P27  P5+  0.029  0.129  0.530  1.000
  P27  P5+  0.029  0.129  0.730  1.000
  P27  P5+  0.029  0.129  0.930  1.000
  P27  P5+  0.029  0.329  0.130  1.000
  P27  P5+  0.029  0.329  0.330  1.000
  P27  P5+  0.029  0.329  0.530  1.000
  P27  P5+  0.029  0.329  0.730  1.000
  P27  P5+  0.029  0.329  0.930  1.000
  P27  P5+  0.029  0.529  0.130  1.000
  P27  P5+  0.029  0.529  0.330  1.000
  P27  P5+  0.029  0.529  0.530  1.000
  P27  P5+  0.029  0.529  0.730  1.000
  P27  P5+  0.029  0.529  0.930  1.000
  P27  P5+  0.029  0.729  0.130  1.000
  P27  P5+  0.029  0.729  0.330  1.000
  P27  P5+  0.029  0.729  0.530  1.000
  P27  P5+  0.029  0.729  0.730  1.000
  P27  P5+  0.029  0.729  0.930  1.000
  P27  P5+  0.029  0.929  0.130  1.000
  P27  P5+  0.029  0.929  0.330  1.000
  P27  P5+  0.029  0.929  0.530  1.000
  P27  P5+  0.029  0.929  0.730  1.000
  P27  P5+  0.029  0.929  0.930  1.000
  P27  P5+  0.229  0.129  0.130  1.000
  P27  P5+  0.229  0.129  0.330  1.000
  P27  P5+  0.229  0.129  0.530  1.000
  P27  P5+  0.229  0.129  0.730  1.000
  P27  P5+  0.229  0.129  0.930  1.000
  P27  P5+  0.229  0.329  0.130  1.000
  P27  P5+  0.229  0.329  0.330  1.000
  P27  P5+  0.229  0.329  0.530  1.000
  P27  P5+  0.229  0.329  0.730  1.000
  P27  P5+  0.229  0.329  0.930  1.000
  P27  P5+  0.229  0.529  0.130  1.000
  P27  P5+  0.229  0.529  0.330  1.000
  P27  P5+  0.229  0.529  0.530  1.000
  P27  P5+  0.229  0.529  0.730  1.000
  P27  P5+  0.229  0.529  0.930  1.000
  P27  P5+  0.229  0.729  0.130  1.000
  P27  P5+  0.229  0.729  0.330  1.000
  P27  P5+  0.229  0.729  0.530  1.000
  P27  P5+  0.229  0.729  0.730  1.000
  P27  P5+  0.229  0.729  0.930  1.000
  P27  P5+  0.229  0.929  0.130  1.000
  P27  P5+  0.229  0.929  0.330  1.000
  P27  P5+  0.229  0.929  0.530  1.000
  P27  P5+  0.229  0.929  0.730  1.000
  P27  P5+  0.229  0.929  0.930  1.000
  P27  P5+  0.429  0.129  0.130  1.000
  P27  P5+  0.429  0.129  0.330  1.000
  P27  P5+  0.429  0.129  0.530  1.000
  P27  P5+  0.429  0.129  0.730  1.000
  P27  P5+  0.429  0.129  0.930  1.000
  P27  P5+  0.429  0.329  0.130  1.000
  P27  P5+  0.429  0.329  0.330  1.000
  P27  P5+  0.429  0.329  0.530  1.000
  P27  P5+  0.429  0.329  0.730  1.000
  P27  P5+  0.429  0.329  0.930  1.000
  P27  P5+  0.429  0.529  0.130  1.000
  P27  P5+  0.429  0.529  0.330  1.000
  P27  P5+  0.429  0.529  0.530  1.000
  P27  P5+  0.429  0.529  0.730  1.000
  P27  P5+  0.429  0.529  0.930  1.000
  P27  P5+  0.429  0.729  0.130  1.000
  P27  P5+  0.429  0.729  0.330  1.000
  P27  P5+  0.429  0.729  0.530  1.000
  P27  P5+  0.429  0.729  0.730  1.000
  P27  P5+  0.429  0.729  0.930  1.000
  P27  P5+  0.429  0.929  0.130  1.000
  P27  P5+  0.429  0.929  0.330  1.000
  P27  P5+  0.429  0.929  0.530  1.000
  P27  P5+  0.429  0.929  0.730  1.000
  P27  P5+  0.429  0.929  0.930  1.000
  P27  P5+  0.629  0.129  0.130  1.000
  P27  P5+  0.629  0.129  0.330  1.000
  P27  P5+  0.629  0.129  0.530  1.000
  P27  P5+  0.629  0.129  0.730  1.000
  P27  P5+  0.629  0.129  0.930  1.000
  P27  P5+  0.629  0.329  0.130  1.000
  P27  P5+  0.629  0.329  0.330  1.000
  P27  P5+  0.629  0.329  0.530  1.000
  P27  P5+  0.629  0.329  0.730  1.000
  P27  P5+  0.629  0.329  0.930  1.000
  P27  P5+  0.629  0.529  0.130  1.000
  P27  P5+  0.629  0.529  0.330  1.000
  P27  P5+  0.629  0.529  0.530  1.000
  P27  P5+  0.629  0.529  0.730  1.000
  P27  P5+  0.629  0.529  0.930  1.000
  P27  P5+  0.629  0.729  0.130  1.000
  P27  P5+  0.629  0.729  0.330  1.000
  P27  P5+  0.629  0.729  0.530  1.000
  P27  P5+  0.629  0.729  0.730  1.000
  P27  P5+  0.629  0.729  0.930  1.000
  P27  P5+  0.629  0.929  0.130  1.000
  P27  P5+  0.629  0.929  0.330  1.000
  P27  P5+  0.629  0.929  0.530  1.000
  P27  P5+  0.629  0.929  0.730  1.000
  P27  P5+  0.629  0.929  0.930  1.000
  P27  P5+  0.829  0.129  0.130  1.000
  P27  P5+  0.829  0.129  0.330  1.000
  P27  P5+  0.829  0.129  0.530  1.000
  P27  P5+  0.829  0.129  0.730  1.000
  P27  P5+  0.829  0.129  0.930  1.000
  P27  P5+  0.829  0.329  0.130  1.000
  P27  P5+  0.829  0.329  0.330  1.000
  P27  P5+  0.829  0.329  0.530  1.000
  P27  P5+  0.829  0.329  0.730  1.000
  P27  P5+  0.829  0.329  0.930  1.000
  P27  P5+  0.829  0.529  0.130  1.000
  P27  P5+  0.829  0.529  0.330  1.000
  P27  P5+  0.829  0.529  0.530  1.000
  P27  P5+  0.829  0.529  0.730  1.000
  P27  P5+  0.829  0.529  0.930  1.000
  P27  P5+  0.829  0.729  0.130  1.000
  P27  P5+  0.829  0.729  0.330  1.000
  P27  P5+  0.829  0.729  0.530  1.000
  P27  P5+  0.829  0.729  0.730  1.000
  P27  P5+  0.829  0.729  0.930  1.000
  P27  P5+  0.829  0.929  0.130  1.000
  P27  P5+  0.829  0.929  0.330  1.000
  P27  P5+  0.829  0.929  0.530  1.000
  P27  P5+  0.829  0.929  0.730  1.000
  P27  P5+  0.829  0.929  0.930  1.000
  P28  P5+  0.029  0.071  0.070  1.000
  P28  P5+  0.029  0.071  0.270  1.000
  P28  P5+  0.029  0.071  0.470  1.000
  P28  P5+  0.029  0.071  0.670  1.000
  P28  P5+  0.029  0.071  0.870  1.000
  P28  P5+  0.029  0.271  0.070  1.000
  P28  P5+  0.029  0.271  0.270  1.000
  P28  P5+  0.029  0.271  0.470  1.000
  P28  P5+  0.029  0.271  0.670  1.000
  P28  P5+  0.029  0.271  0.870  1.000
  P28  P5+  0.029  0.471  0.070  1.000
  P28  P5+  0.029  0.471  0.270  1.000
  P28  P5+  0.029  0.471  0.470  1.000
  P28  P5+  0.029  0.471  0.670  1.000
  P28  P5+  0.029  0.471  0.870  1.000
  P28  P5+  0.029  0.671  0.070  1.000
  P28  P5+  0.029  0.671  0.270  1.000
  P28  P5+  0.029  0.671  0.470  1.000
  P28  P5+  0.029  0.671  0.670  1.000
  P28  P5+  0.029  0.671  0.870  1.000
  P28  P5+  0.029  0.871  0.070  1.000
  P28  P5+  0.029  0.871  0.270  1.000
  P28  P5+  0.029  0.871  0.470  1.000
  P28  P5+  0.029  0.871  0.670  1.000
  P28  P5+  0.029  0.871  0.870  1.000
  P28  P5+  0.229  0.071  0.070  1.000
  P28  P5+  0.229  0.071  0.270  1.000
  P28  P5+  0.229  0.071  0.470  1.000
  P28  P5+  0.229  0.071  0.670  1.000
  P28  P5+  0.229  0.071  0.870  1.000
  P28  P5+  0.229  0.271  0.070  1.000
  P28  P5+  0.229  0.271  0.270  1.000
  P28  P5+  0.229  0.271  0.470  1.000
  P28  P5+  0.229  0.271  0.670  1.000
  P28  P5+  0.229  0.271  0.870  1.000
  P28  P5+  0.229  0.471  0.070  1.000
  P28  P5+  0.229  0.471  0.270  1.000
  P28  P5+  0.229  0.471  0.470  1.000
  P28  P5+  0.229  0.471  0.670  1.000
  P28  P5+  0.229  0.471  0.870  1.000
  P28  P5+  0.229  0.671  0.070  1.000
  P28  P5+  0.229  0.671  0.270  1.000
  P28  P5+  0.229  0.671  0.470  1.000
  P28  P5+  0.229  0.671  0.670  1.000
  P28  P5+  0.229  0.671  0.870  1.000
  P28  P5+  0.229  0.871  0.070  1.000
  P28  P5+  0.229  0.871  0.270  1.000
  P28  P5+  0.229  0.871  0.470  1.000
  P28  P5+  0.229  0.871  0.670  1.000
  P28  P5+  0.229  0.871  0.870  1.000
  P28  P5+  0.429  0.071  0.070  1.000
  P28  P5+  0.429  0.071  0.270  1.000
  P28  P5+  0.429  0.071  0.470  1.000
  P28  P5+  0.429  0.071  0.670  1.000
  P28  P5+  0.429  0.071  0.870  1.000
  P28  P5+  0.429  0.271  0.070  1.000
  P28  P5+  0.429  0.271  0.270  1.000
  P28  P5+  0.429  0.271  0.470  1.000
  P28  P5+  0.429  0.271  0.670  1.000
  P28  P5+  0.429  0.271  0.870  1.000
  P28  P5+  0.429  0.471  0.070  1.000
  P28  P5+  0.429  0.471  0.270  1.000
  P28  P5+  0.429  0.471  0.470  1.000
  P28  P5+  0.429  0.471  0.670  1.000
  P28  P5+  0.429  0.471  0.870  1.000
  P28  P5+  0.429  0.671  0.070  1.000
  P28  P5+  0.429  0.671  0.270  1.000
  P28  P5+  0.429  0.671  0.470  1.000
  P28  P5+  0.429  0.671  0.670  1.000
  P28  P5+  0.429  0.671  0.870  1.000
  P28  P5+  0.429  0.871  0.070  1.000
  P28  P5+  0.429  0.871  0.270  1.000
  P28  P5+  0.429  0.871  0.470  1.000
  P28  P5+  0.429  0.871  0.670  1.000
  P28  P5+  0.429  0.871  0.870  1.000
  P28  P5+  0.629  0.071  0.070  1.000
  P28  P5+  0.629  0.071  0.270  1.000
  P28  P5+  0.629  0.071  0.470  1.000
  P28  P5+  0.629  0.071  0.670  1.000
  P28  P5+  0.629  0.071  0.870  1.000
  P28  P5+  0.629  0.271  0.070  1.000
  P28  P5+  0.629  0.271  0.270  1.000
  P28  P5+  0.629  0.271  0.470  1.000
  P28  P5+  0.629  0.271  0.670  1.000
  P28  P5+  0.629  0.271  0.870  1.000
  P28  P5+  0.629  0.471  0.070  1.000
  P28  P5+  0.629  0.471  0.270  1.000
  P28  P5+  0.629  0.471  0.470  1.000
  P28  P5+  0.629  0.471  0.670  1.000
  P28  P5+  0.629  0.471  0.870  1.000
  P28  P5+  0.629  0.671  0.070  1.000
  P28  P5+  0.629  0.671  0.270  1.000
  P28  P5+  0.629  0.671  0.470  1.000
  P28  P5+  0.629  0.671  0.670  1.000
  P28  P5+  0.629  0.671  0.870  1.000
  P28  P5+  0.629  0.871  0.070  1.000
  P28  P5+  0.629  0.871  0.270  1.000
  P28  P5+  0.629  0.871  0.470  1.000
  P28  P5+  0.629  0.871  0.670  1.000
  P28  P5+  0.629  0.871  0.870  1.000
  P28  P5+  0.829  0.071  0.070  1.000
  P28  P5+  0.829  0.071  0.270  1.000
  P28  P5+  0.829  0.071  0.470  1.000
  P28  P5+  0.829  0.071  0.670  1.000
  P28  P5+  0.829  0.071  0.870  1.000
  P28  P5+  0.829  0.271  0.070  1.000
  P28  P5+  0.829  0.271  0.270  1.000
  P28  P5+  0.829  0.271  0.470  1.000
  P28  P5+  0.829  0.271  0.670  1.000
  P28  P5+  0.829  0.271  0.870  1.000
  P28  P5+  0.829  0.471  0.070  1.000
  P28  P5+  0.829  0.471  0.270  1.000
  P28  P5+  0.829  0.471  0.470  1.000
  P28  P5+  0.829  0.471  0.670  1.000
  P28  P5+  0.829  0.471  0.870  1.000
  P28  P5+  0.829  0.671  0.070  1.000
  P28  P5+  0.829  0.671  0.270  1.000
  P28  P5+  0.829  0.671  0.470  1.000
  P28  P5+  0.829  0.671  0.670  1.000
  P28  P5+  0.829  0.671  0.870  1.000
  P28  P5+  0.829  0.871  0.070  1.000
  P28  P5+  0.829  0.871  0.270  1.000
  P28  P5+  0.829  0.871  0.470  1.000
  P28  P5+  0.829  0.871  0.670  1.000
  P28  P5+  0.829  0.871  0.870  1.000
  P29  P5+  0.171  0.171  0.030  1.000
  P29  P5+  0.171  0.171  0.230  1.000
  P29  P5+  0.171  0.171  0.430  1.000
  P29  P5+  0.171  0.171  0.630  1.000
  P29  P5+  0.171  0.171  0.830  1.000
  P29  P5+  0.171  0.371  0.030  1.000
  P29  P5+  0.171  0.371  0.230  1.000
  P29  P5+  0.171  0.371  0.430  1.000
  P29  P5+  0.171  0.371  0.630  1.000
  P29  P5+  0.171  0.371  0.830  1.000
  P29  P5+  0.171  0.571  0.030  1.000
  P29  P5+  0.171  0.571  0.230  1.000
  P29  P5+  0.171  0.571  0.430  1.000
  P29  P5+  0.171  0.571  0.630  1.000
  P29  P5+  0.171  0.571  0.830  1.000
  P29  P5+  0.171  0.771  0.030  1.000
  P29  P5+  0.171  0.771  0.230  1.000
  P29  P5+  0.171  0.771  0.430  1.000
  P29  P5+  0.171  0.771  0.630  1.000
  P29  P5+  0.171  0.771  0.830  1.000
  P29  P5+  0.171  0.971  0.030  1.000
  P29  P5+  0.171  0.971  0.230  1.000
  P29  P5+  0.171  0.971  0.430  1.000
  P29  P5+  0.171  0.971  0.630  1.000
  P29  P5+  0.171  0.971  0.830  1.000
  P29  P5+  0.371  0.171  0.030  1.000
  P29  P5+  0.371  0.171  0.230  1.000
  P29  P5+  0.371  0.171  0.430  1.000
  P29  P5+  0.371  0.171  0.630  1.000
  P29  P5+  0.371  0.171  0.830  1.000
  P29  P5+  0.371  0.371  0.030  1.000
  P29  P5+  0.371  0.371  0.230  1.000
  P29  P5+  0.371  0.371  0.430  1.000
  P29  P5+  0.371  0.371  0.630  1.000
  P29  P5+  0.371  0.371  0.830  1.000
  P29  P5+  0.371  0.571  0.030  1.000
  P29  P5+  0.371  0.571  0.230  1.000
  P29  P5+  0.371  0.571  0.430  1.000
  P29  P5+  0.371  0.571  0.630  1.000
  P29  P5+  0.371  0.571  0.830  1.000
  P29  P5+  0.371  0.771  0.030  1.000
  P29  P5+  0.371  0.771  0.230  1.000
  P29  P5+  0.371  0.771  0.430  1.000
  P29  P5+  0.371  0.771  0.630  1.000
  P29  P5+  0.371  0.771  0.830  1.000
  P29  P5+  0.371  0.971  0.030  1.000
  P29  P5+  0.371  0.971  0.230  1.000
  P29  P5+  0.371  0.971  0.430  1.000
  P29  P5+  0.371  0.971  0.630  1.000
  P29  P5+  0.371  0.971  0.830  1.000
  P29  P5+  0.571  0.171  0.030  1.000
  P29  P5+  0.571  0.171  0.230  1.000
  P29  P5+  0.571  0.171  0.430  1.000
  P29  P5+  0.571  0.171  0.630  1.000
  P29  P5+  0.571  0.171  0.830  1.000
  P29  P5+  0.571  0.371  0.030  1.000
  P29  P5+  0.571  0.371  0.230  1.000
  P29  P5+  0.571  0.371  0.430  1.000
  P29  P5+  0.571  0.371  0.630  1.000
  P29  P5+  0.571  0.371  0.830  1.000
  P29  P5+  0.571  0.571  0.030  1.000
  P29  P5+  0.571  0.571  0.230  1.000
  P29  P5+  0.571  0.571  0.430  1.000
  P29  P5+  0.571  0.571  0.630  1.000
  P29  P5+  0.571  0.571  0.830  1.000
  P29  P5+  0.571  0.771  0.030  1.000
  P29  P5+  0.571  0.771  0.230  1.000
  P29  P5+  0.571  0.771  0.430  1.000
  P29  P5+  0.571  0.771  0.630  1.000
  P29  P5+  0.571  0.771  0.830  1.000
  P29  P5+  0.571  0.971  0.030  1.000
  P29  P5+  0.571  0.971  0.230  1.000
  P29  P5+  0.571  0.971  0.430  1.000
  P29  P5+  0.571  0.971  0.630  1.000
  P29  P5+  0.571  0.971  0.830  1.000
  P29  P5+  0.771  0.171  0.030  1.000
  P29  P5+  0.771  0.171  0.230  1.000
  P29  P5+  0.771  0.171  0.430  1.000
  P29  P5+  0.771  0.171  0.630  1.000
  P29  P5+  0.771  0.171  0.830  1.000
  P29  P5+  0.771  0.371  0.030  1.000
  P29  P5+  0.771  0.371  0.230  1.000
  P29  P5+  0.771  0.371  0.430  1.000
  P29  P5+  0.771  0.371  0.630  1.000
  P29  P5+  0.771  0.371  0.830  1.000
  P29  P5+  0.771  0.571  0.030  1.000
  P29  P5+  0.771  0.571  0.230  1.000
  P29  P5+  0.771  0.571  0.430  1.000
  P29  P5+  0.771  0.571  0.630  1.000
  P29  P5+  0.771  0.571  0.830  1.000
  P29  P5+  0.771  0.771  0.030  1.000
  P29  P5+  0.771  0.771  0.230  1.000
  P29  P5+  0.771  0.771  0.430  1.000
  P29  P5+  0.771  0.771  0.630  1.000
  P29  P5+  0.771  0.771  0.830  1.000
  P29  P5+  0.771  0.971  0.030  1.000
  P29  P5+  0.771  0.971  0.230  1.000
  P29  P5+  0.771  0.971  0.430  1.000
  P29  P5+  0.771  0.971  0.630  1.000
  P29  P5+  0.771  0.971  0.830  1.000
  P29  P5+  0.971  0.171  0.030  1.000
  P29  P5+  0.971  0.171  0.230  1.000
  P29  P5+  0.971  0.171  0.430  1.000
  P29  P5+  0.971  0.171  0.630  1.000
  P29  P5+  0.971  0.171  0.830  1.000
  P29  P5+  0.971  0.371  0.030  1.000
  P29  P5+  0.971  0.371  0.230  1.000
  P29  P5+  0.971  0.371  0.430  1.000
  P29  P5+  0.971  0.371  0.630  1.000
  P29  P5+  0.971  0.371  0.830  1.000
  P29  P5+  0.971  0.571  0.030  1.000
  P29  P5+  0.971  0.571  0.230  1.000
  P29  P5+  0.971  0.571  0.430  1.000
  P29  P5+  0.971  0.571  0.630  1.000
  P29  P5+  0.971  0.571  0.830  1.000
  P29  P5+  0.971  0.771  0.030  1.000
  P29  P5+  0.971  0.771  0.230  1.000
  P29  P5+  0.971  0.771  0.430  1.000
  P29  P5+  0.971  0.771  0.630  1.000
  P29  P5+  0.971  0.771  0.830  1.000
  P29  P5+  0.971  0.971  0.030  1.000
  P29  P5+  0.971  0.971  0.230  1.000
  P29  P5+  0.971  0.971  0.430  1.000
  P29  P5+  0.971  0.971  0.630  1.000
  P29  P5+  0.971  0.971  0.830  1.000
  P30  P5+  0.171  0.029  0.170  1.000
  P30  P5+  0.171  0.029  0.370  1.000
  P30  P5+  0.171  0.029  0.570  1.000
  P30  P5+  0.171  0.029  0.770  1.000
  P30  P5+  0.171  0.029  0.970  1.000
  P30  P5+  0.171  0.229  0.170  1.000
  P30  P5+  0.171  0.229  0.370  1.000
  P30  P5+  0.171  0.229  0.570  1.000
  P30  P5+  0.171  0.229  0.770  1.000
  P30  P5+  0.171  0.229  0.970  1.000
  P30  P5+  0.171  0.429  0.170  1.000
  P30  P5+  0.171  0.429  0.370  1.000
  P30  P5+  0.171  0.429  0.570  1.000
  P30  P5+  0.171  0.429  0.770  1.000
  P30  P5+  0.171  0.429  0.970  1.000
  P30  P5+  0.171  0.629  0.170  1.000
  P30  P5+  0.171  0.629  0.370  1.000
  P30  P5+  0.171  0.629  0.570  1.000
  P30  P5+  0.171  0.629  0.770  1.000
  P30  P5+  0.171  0.629  0.970  1.000
  P30  P5+  0.171  0.829  0.170  1.000
  P30  P5+  0.171  0.829  0.370  1.000
  P30  P5+  0.171  0.829  0.570  1.000
  P30  P5+  0.171  0.829  0.770  1.000
  P30  P5+  0.171  0.829  0.970  1.000
  P30  P5+  0.371  0.029  0.170  1.000
  P30  P5+  0.371  0.029  0.370  1.000
  P30  P5+  0.371  0.029  0.570  1.000
  P30  P5+  0.371  0.029  0.770  1.000
  P30  P5+  0.371  0.029  0.970  1.000
  P30  P5+  0.371  0.229  0.170  1.000
  P30  P5+  0.371  0.229  0.370  1.000
  P30  P5+  0.371  0.229  0.570  1.000
  P30  P5+  0.371  0.229  0.770  1.000
  P30  P5+  0.371  0.229  0.970  1.000
  P30  P5+  0.371  0.429  0.170  1.000
  P30  P5+  0.371  0.429  0.370  1.000
  P30  P5+  0.371  0.429  0.570  1.000
  P30  P5+  0.371  0.429  0.770  1.000
  P30  P5+  0.371  0.429  0.970  1.000
  P30  P5+  0.371  0.629  0.170  1.000
  P30  P5+  0.371  0.629  0.370  1.000
  P30  P5+  0.371  0.629  0.570  1.000
  P30  P5+  0.371  0.629  0.770  1.000
  P30  P5+  0.371  0.629  0.970  1.000
  P30  P5+  0.371  0.829  0.170  1.000
  P30  P5+  0.371  0.829  0.370  1.000
  P30  P5+  0.371  0.829  0.570  1.000
  P30  P5+  0.371  0.829  0.770  1.000
  P30  P5+  0.371  0.829  0.970  1.000
  P30  P5+  0.571  0.029  0.170  1.000
  P30  P5+  0.571  0.029  0.370  1.000
  P30  P5+  0.571  0.029  0.570  1.000
  P30  P5+  0.571  0.029  0.770  1.000
  P30  P5+  0.571  0.029  0.970  1.000
  P30  P5+  0.571  0.229  0.170  1.000
  P30  P5+  0.571  0.229  0.370  1.000
  P30  P5+  0.571  0.229  0.570  1.000
  P30  P5+  0.571  0.229  0.770  1.000
  P30  P5+  0.571  0.229  0.970  1.000
  P30  P5+  0.571  0.429  0.170  1.000
  P30  P5+  0.571  0.429  0.370  1.000
  P30  P5+  0.571  0.429  0.570  1.000
  P30  P5+  0.571  0.429  0.770  1.000
  P30  P5+  0.571  0.429  0.970  1.000
  P30  P5+  0.571  0.629  0.170  1.000
  P30  P5+  0.571  0.629  0.370  1.000
  P30  P5+  0.571  0.629  0.570  1.000
  P30  P5+  0.571  0.629  0.770  1.000
  P30  P5+  0.571  0.629  0.970  1.000
  P30  P5+  0.571  0.829  0.170  1.000
  P30  P5+  0.571  0.829  0.370  1.000
  P30  P5+  0.571  0.829  0.570  1.000
  P30  P5+  0.571  0.829  0.770  1.000
  P30  P5+  0.571  0.829  0.970  1.000
  P30  P5+  0.771  0.029  0.170  1.000
  P30  P5+  0.771  0.029  0.370  1.000
  P30  P5+  0.771  0.029  0.570  1.000
  P30  P5+  0.771  0.029  0.770  1.000
  P30  P5+  0.771  0.029  0.970  1.000
  P30  P5+  0.771  0.229  0.170  1.000
  P30  P5+  0.771  0.229  0.370  1.000
  P30  P5+  0.771  0.229  0.570  1.000
  P30  P5+  0.771  0.229  0.770  1.000
  P30  P5+  0.771  0.229  0.970  1.000
  P30  P5+  0.771  0.429  0.170  1.000
  P30  P5+  0.771  0.429  0.370  1.000
  P30  P5+  0.771  0.429  0.570  1.000
  P30  P5+  0.771  0.429  0.770  1.000
  P30  P5+  0.771  0.429  0.970  1.000
  P30  P5+  0.771  0.629  0.170  1.000
  P30  P5+  0.771  0.629  0.370  1.000
  P30  P5+  0.771  0.629  0.570  1.000
  P30  P5+  0.771  0.629  0.770  1.000
  P30  P5+  0.771  0.629  0.970  1.000
  P30  P5+  0.771  0.829  0.170  1.000
  P30  P5+  0.771  0.829  0.370  1.000
  P30  P5+  0.771  0.829  0.570  1.000
  P30  P5+  0.771  0.829  0.770  1.000
  P30  P5+  0.771  0.829  0.970  1.000
  P30  P5+  0.971  0.029  0.170  1.000
  P30  P5+  0.971  0.029  0.370  1.000
  P30  P5+  0.971  0.029  0.570  1.000
  P30  P5+  0.971  0.029  0.770  1.000
  P30  P5+  0.971  0.029  0.970  1.000
  P30  P5+  0.971  0.229  0.170  1.000
  P30  P5+  0.971  0.229  0.370  1.000
  P30  P5+  0.971  0.229  0.570  1.000
  P30  P5+  0.971  0.229  0.770  1.000
  P30  P5+  0.971  0.229  0.970  1.000
  P30  P5+  0.971  0.429  0.170  1.000
  P30  P5+  0.971  0.429  0.370  1.000
  P30  P5+  0.971  0.429  0.570  1.000
  P30  P5+  0.971  0.429  0.770  1.000
  P30  P5+  0.971  0.429  0.970  1.000
  P30  P5+  0.971  0.629  0.170  1.000
  P30  P5+  0.971  0.629  0.370  1.000
  P30  P5+  0.971  0.629  0.570  1.000
  P30  P5+  0.971  0.629  0.770  1.000
  P30  P5+  0.971  0.629  0.970  1.000
  P30  P5+  0.971  0.829  0.170  1.000
  P30  P5+  0.971  0.829  0.370  1.000
  P30  P5+  0.971  0.829  0.570  1.000
  P30  P5+  0.971  0.829  0.770  1.000
  P30  P5+  0.971  0.829  0.970  1.000
  P31  P5+  0.159  0.000  0.100  1.000
  P31  P5+  0.159  -0.000  0.300  1.000
  P31  P5+  0.159  0.000  0.500  1.000
  P31  P5+  0.159  -0.000  0.700  1.000
  P31  P5+  0.159  0.000  0.900  1.000
  P31  P5+  0.159  0.200  0.100  1.000
  P31  P5+  0.159  0.200  0.300  1.000
  P31  P5+  0.159  0.200  0.500  1.000
  P31  P5+  0.159  0.200  0.700  1.000
  P31  P5+  0.159  0.200  0.900  1.000
  P31  P5+  0.159  0.400  0.100  1.000
  P31  P5+  0.159  0.400  0.300  1.000
  P31  P5+  0.159  0.400  0.500  1.000
  P31  P5+  0.159  0.400  0.700  1.000
  P31  P5+  0.159  0.400  0.900  1.000
  P31  P5+  0.159  0.600  0.100  1.000
  P31  P5+  0.159  0.600  0.300  1.000
  P31  P5+  0.159  0.600  0.500  1.000
  P31  P5+  0.159  0.600  0.700  1.000
  P31  P5+  0.159  0.600  0.900  1.000
  P31  P5+  0.159  0.800  0.100  1.000
  P31  P5+  0.159  0.800  0.300  1.000
  P31  P5+  0.159  0.800  0.500  1.000
  P31  P5+  0.159  0.800  0.700  1.000
  P31  P5+  0.159  0.800  0.900  1.000
  P31  P5+  0.359  0.000  0.100  1.000
  P31  P5+  0.359  -0.000  0.300  1.000
  P31  P5+  0.359  0.000  0.500  1.000
  P31  P5+  0.359  -0.000  0.700  1.000
  P31  P5+  0.359  0.000  0.900  1.000
  P31  P5+  0.359  0.200  0.100  1.000
  P31  P5+  0.359  0.200  0.300  1.000
  P31  P5+  0.359  0.200  0.500  1.000
  P31  P5+  0.359  0.200  0.700  1.000
  P31  P5+  0.359  0.200  0.900  1.000
  P31  P5+  0.359  0.400  0.100  1.000
  P31  P5+  0.359  0.400  0.300  1.000
  P31  P5+  0.359  0.400  0.500  1.000
  P31  P5+  0.359  0.400  0.700  1.000
  P31  P5+  0.359  0.400  0.900  1.000
  P31  P5+  0.359  0.600  0.100  1.000
  P31  P5+  0.359  0.600  0.300  1.000
  P31  P5+  0.359  0.600  0.500  1.000
  P31  P5+  0.359  0.600  0.700  1.000
  P31  P5+  0.359  0.600  0.900  1.000
  P31  P5+  0.359  0.800  0.100  1.000
  P31  P5+  0.359  0.800  0.300  1.000
  P31  P5+  0.359  0.800  0.500  1.000
  P31  P5+  0.359  0.800  0.700  1.000
  P31  P5+  0.359  0.800  0.900  1.000
  P31  P5+  0.559  0.000  0.100  1.000
  P31  P5+  0.559  -0.000  0.300  1.000
  P31  P5+  0.559  0.000  0.500  1.000
  P31  P5+  0.559  -0.000  0.700  1.000
  P31  P5+  0.559  0.000  0.900  1.000
  P31  P5+  0.559  0.200  0.100  1.000
  P31  P5+  0.559  0.200  0.300  1.000
  P31  P5+  0.559  0.200  0.500  1.000
  P31  P5+  0.559  0.200  0.700  1.000
  P31  P5+  0.559  0.200  0.900  1.000
  P31  P5+  0.559  0.400  0.100  1.000
  P31  P5+  0.559  0.400  0.300  1.000
  P31  P5+  0.559  0.400  0.500  1.000
  P31  P5+  0.559  0.400  0.700  1.000
  P31  P5+  0.559  0.400  0.900  1.000
  P31  P5+  0.559  0.600  0.100  1.000
  P31  P5+  0.559  0.600  0.300  1.000
  P31  P5+  0.559  0.600  0.500  1.000
  P31  P5+  0.559  0.600  0.700  1.000
  P31  P5+  0.559  0.600  0.900  1.000
  P31  P5+  0.559  0.800  0.100  1.000
  P31  P5+  0.559  0.800  0.300  1.000
  P31  P5+  0.559  0.800  0.500  1.000
  P31  P5+  0.559  0.800  0.700  1.000
  P31  P5+  0.559  0.800  0.900  1.000
  P31  P5+  0.759  0.000  0.100  1.000
  P31  P5+  0.759  -0.000  0.300  1.000
  P31  P5+  0.759  0.000  0.500  1.000
  P31  P5+  0.759  -0.000  0.700  1.000
  P31  P5+  0.759  0.000  0.900  1.000
  P31  P5+  0.759  0.200  0.100  1.000
  P31  P5+  0.759  0.200  0.300  1.000
  P31  P5+  0.759  0.200  0.500  1.000
  P31  P5+  0.759  0.200  0.700  1.000
  P31  P5+  0.759  0.200  0.900  1.000
  P31  P5+  0.759  0.400  0.100  1.000
  P31  P5+  0.759  0.400  0.300  1.000
  P31  P5+  0.759  0.400  0.500  1.000
  P31  P5+  0.759  0.400  0.700  1.000
  P31  P5+  0.759  0.400  0.900  1.000
  P31  P5+  0.759  0.600  0.100  1.000
  P31  P5+  0.759  0.600  0.300  1.000
  P31  P5+  0.759  0.600  0.500  1.000
  P31  P5+  0.759  0.600  0.700  1.000
  P31  P5+  0.759  0.600  0.900  1.000
  P31  P5+  0.759  0.800  0.100  1.000
  P31  P5+  0.759  0.800  0.300  1.000
  P31  P5+  0.759  0.800  0.500  1.000
  P31  P5+  0.759  0.800  0.700  1.000
  P31  P5+  0.759  0.800  0.900  1.000
  P31  P5+  0.959  0.000  0.100  1.000
  P31  P5+  0.959  -0.000  0.300  1.000
  P31  P5+  0.959  0.000  0.500  1.000
  P31  P5+  0.959  -0.000  0.700  1.000
  P31  P5+  0.959  0.000  0.900  1.000
  P31  P5+  0.959  0.200  0.100  1.000
  P31  P5+  0.959  0.200  0.300  1.000
  P31  P5+  0.959  0.200  0.500  1.000
  P31  P5+  0.959  0.200  0.700  1.000
  P31  P5+  0.959  0.200  0.900  1.000
  P31  P5+  0.959  0.400  0.100  1.000
  P31  P5+  0.959  0.400  0.300  1.000
  P31  P5+  0.959  0.400  0.500  1.000
  P31  P5+  0.959  0.400  0.700  1.000
  P31  P5+  0.959  0.400  0.900  1.000
  P31  P5+  0.959  0.600  0.100  1.000
  P31  P5+  0.959  0.600  0.300  1.000
  P31  P5+  0.959  0.600  0.500  1.000
  P31  P5+  0.959  0.600  0.700  1.000
  P31  P5+  0.959  0.600  0.900  1.000
  P31  P5+  0.959  0.800  0.100  1.000
  P31  P5+  0.959  0.800  0.300  1.000
  P31  P5+  0.959  0.800  0.500  1.000
  P31  P5+  0.959  0.800  0.700  1.000
  P31  P5+  0.959  0.800  0.900  1.000

#end of data
